data/pglib_opf_case2742_goc_storage.m
%%%%%%%%%%%%%%%%%%%%%%%%%%%%%%%%%%%%%%%%%%%%%%%%%%%%%%%%%%%%%%%%%%%%%%%%%%%
%%%%                                                                  %%%%%
%%%%    IEEE PES Power Grid Library - Optimal Power Flow - v23.07     %%%%%
%%%%          (https://github.com/power-grid-lib/pglib-opf)           %%%%%
%%%%               Benchmark Group - Typical Operations               %%%%%
%%%%                         23 - July - 2023                         %%%%%
%%%%                                                                  %%%%%
%%%%%%%%%%%%%%%%%%%%%%%%%%%%%%%%%%%%%%%%%%%%%%%%%%%%%%%%%%%%%%%%%%%%%%%%%%%
%
%   This is a synthetic 2,742 bus case, developed for use in ARPA-e's Grid
%   Optimization Competition, Challenge 1.
%
%   https://gocompetition.energy.gov/challenges/22/datasets
%
%   Copyright (c) 2020 University of Wisconsin-Madison
%   https://dev.epigrids.discovery.wisc.edu/
%   Licensed under the Creative Commons Attribution 4.0 International license,
%   http://creativecommons.org/licenses/by/4.0/
%
% Modified to have additional storage capacity and increased gencost
function mpc = pglib_opf_case2742_goc
mpc.version = '2';
mpc.baseMVA = 100.0;

%% bus data
%	bus_i	type	Pd	Qd	Gs	Bs	area	Vm	Va	baseKV	zone	Vmax	Vmin
mpc.bus = [
	35250	 3	 0.0	 0.0	 0.0	 0.0	 1	    1.00000	    0.00000	 500.0	 1	    1.10000	    0.90000;
	35251	 2	 0.0	 0.0	 0.0	 0.0	 1	    1.00000	    0.00000	 500.0	 1	    1.10000	    0.90000;
	35252	 2	 0.0	 0.0	 0.0	 0.0	 1	    1.00000	    0.00000	 500.0	 1	    1.10000	    0.90000;
	35253	 1	 0.0	 0.0	 0.0	 0.0	 1	    1.00000	    0.00000	 500.0	 1	    1.10000	    0.90000;
	35254	 2	 0.0	 0.0	 0.0	 0.0	 1	    1.00000	    0.00000	 500.0	 1	    1.10000	    0.90000;
	35255	 2	 0.0	 0.0	 0.0	 0.0	 1	    1.00000	    0.00000	 500.0	 1	    1.10000	    0.90000;
	35256	 1	 0.0	 0.0	 0.0	 0.0	 1	    1.00000	    0.00000	 500.0	 1	    1.10000	    0.90000;
	35257	 2	 0.0	 0.0	 0.0	 0.0	 1	    1.00000	    0.00000	 500.0	 1	    1.10000	    0.90000;
	35258	 1	 0.0	 0.0	 0.0	 0.0	 1	    1.00000	    0.00000	 500.0	 1	    1.10000	    0.90000;
	35259	 2	 0.0	 0.0	 0.0	 0.0	 1	    1.00000	    0.00000	 138.0	 1	    1.10000	    0.90000;
	35260	 1	 0.0	 0.0	 0.0	 0.0	 1	    1.00000	    0.00000	 500.0	 1	    1.10000	    0.90000;
	35261	 1	 0.0	 0.0	 0.0	 0.0	 1	    1.00000	    0.00000	 230.0	 1	    1.10000	    0.90000;
	35262	 1	 0.0	 0.0	 0.0	 0.0	 1	    1.00000	    0.00000	 500.0	 1	    1.10000	    0.90000;
	35263	 1	 0.0	 0.0	 0.0	 0.0	 1	    1.00000	    0.00000	 138.0	 1	    1.10000	    0.90000;
	35264	 2	 0.0	 0.0	 0.0	 0.0	 1	    1.00000	    0.00000	 230.0	 1	    1.10000	    0.90000;
	35265	 2	 0.0	 0.0	 0.0	 0.0	 1	    1.00000	    0.00000	 500.0	 1	    1.10000	    0.90000;
	35266	 2	 0.0	 0.0	 0.0	 0.0	 1	    1.00000	    0.00000	 500.0	 1	    1.10000	    0.90000;
	35267	 1	 0.0	 0.0	 0.0	 0.0	 1	    1.00000	    0.00000	 500.0	 1	    1.10000	    0.90000;
	35268	 1	 0.0	 0.0	 0.0	 0.0	 1	    1.00000	    0.00000	 500.0	 1	    1.10000	    0.90000;
	35269	 1	 0.0	 0.0	 0.0	 0.0	 1	    1.00000	    0.00000	 500.0	 1	    1.10000	    0.90000;
	35270	 1	 0.0	 0.0	 0.0	 0.0	 1	    1.00000	    0.00000	 500.0	 1	    1.10000	    0.90000;
	35271	 1	 0.0	 0.0	 0.0	 0.0	 1	    1.00000	    0.00000	 500.0	 1	    1.10000	    0.90000;
	35272	 1	 0.0	 0.0	 0.0	 0.0	 1	    1.00000	    0.00000	 230.0	 1	    1.10000	    0.90000;
	35273	 1	 0.0	 0.0	 0.0	 0.0	 1	    1.00000	    0.00000	 500.0	 1	    1.10000	    0.90000;
	35274	 1	 0.0	 0.0	 0.0	 0.0	 1	    1.00000	    0.00000	 138.0	 1	    1.10000	    0.90000;
	35275	 1	 0.0	 0.0	 0.0	 0.0	 1	    1.00000	    0.00000	 138.0	 1	    1.10000	    0.90000;
	35276	 2	 0.0	 0.0	 0.0	 0.0	 1	    1.00000	    0.00000	 138.0	 1	    1.10000	    0.90000;
	35277	 2	 0.0	 0.0	 0.0	 0.0	 1	    1.00000	    0.00000	 138.0	 1	    1.10000	    0.90000;
	35278	 1	 0.0	 0.0	 0.0	 0.0	 1	    1.00000	    0.00000	 500.0	 1	    1.10000	    0.90000;
	35279	 1	 0.0	 0.0	 0.0	 0.0	 1	    1.00000	    0.00000	 138.0	 1	    1.10000	    0.90000;
	35280	 1	 0.0	 0.0	 0.0	 0.0	 1	    1.00000	    0.00000	 138.0	 1	    1.10000	    0.90000;
	35281	 2	 0.0	 0.0	 0.0	 0.0	 1	    1.00000	    0.00000	 138.0	 1	    1.10000	    0.90000;
	35282	 1	 0.0	 0.0	 0.0	 0.0	 1	    1.00000	    0.00000	 500.0	 1	    1.10000	    0.90000;
	35283	 2	 0.0	 0.0	 0.0	 0.0	 1	    1.00000	    0.00000	 138.0	 1	    1.10000	    0.90000;
	35284	 1	 0.0	 0.0	 0.0	 0.0	 1	    1.00000	    0.00000	 230.0	 1	    1.10000	    0.90000;
	35285	 2	 0.0	 0.0	 0.0	 0.0	 1	    1.00000	    0.00000	 69.0	 1	    1.10000	    0.90000;
	35286	 1	 0.0	 0.0	 0.0	 0.0	 1	    1.00000	    0.00000	 230.0	 1	    1.10000	    0.90000;
	35287	 1	 0.0	 0.0	 0.0	 0.0	 1	    1.00000	    0.00000	 138.0	 1	    1.10000	    0.90000;
	35288	 2	 0.0	 0.0	 0.0	 0.0	 1	    1.00000	    0.00000	 69.0	 1	    1.10000	    0.90000;
	35289	 1	 0.0	 0.0	 0.0	 0.0	 1	    1.00000	    0.00000	 138.0	 1	    1.10000	    0.90000;
	35290	 2	 0.0	 0.0	 0.0	 0.0	 1	    1.00000	    0.00000	 69.0	 1	    1.10000	    0.90000;
	35292	 1	 0.0	 0.0	 0.0	 0.0	 1	    1.00000	    0.00000	 230.0	 1	    1.10000	    0.90000;
	35293	 1	 0.0	 0.0	 0.0	 0.0	 1	    1.00000	    0.00000	 500.0	 1	    1.10000	    0.90000;
	35294	 2	 0.0	 0.0	 0.0	 0.0	 1	    1.00000	    0.00000	 138.0	 1	    1.10000	    0.90000;
	35295	 1	 0.0	 0.0	 0.0	 0.0	 1	    1.00000	    0.00000	 138.0	 1	    1.10000	    0.90000;
	35296	 2	 0.0	 0.0	 0.0	 0.0	 1	    1.00000	    0.00000	 138.0	 1	    1.10000	    0.90000;
	35297	 2	 0.0	 0.0	 0.0	 0.0	 1	    1.00000	    0.00000	 138.0	 1	    1.10000	    0.90000;
	35298	 2	 0.0	 0.0	 0.0	 0.0	 1	    1.00000	    0.00000	 138.0	 1	    1.10000	    0.90000;
	35299	 1	 0.0	 0.0	 0.0	 0.0	 1	    1.00000	    0.00000	 69.0	 1	    1.10000	    0.90000;
	35300	 2	 0.0	 0.0	 0.0	 0.0	 1	    1.00000	    0.00000	 138.0	 1	    1.10000	    0.90000;
	35301	 2	 0.0	 0.0	 0.0	 0.0	 1	    1.00000	    0.00000	 138.0	 1	    1.10000	    0.90000;
	35302	 1	 0.0	 0.0	 0.0	 0.0	 1	    1.00000	    0.00000	 138.0	 1	    1.10000	    0.90000;
	35303	 2	 0.0	 0.0	 0.0	 0.0	 1	    1.00000	    0.00000	 138.0	 1	    1.10000	    0.90000;
	35304	 1	 0.0	 0.0	 0.0	 0.0	 1	    1.00000	    0.00000	 500.0	 1	    1.10000	    0.90000;
	35305	 1	 0.0	 0.0	 0.0	 0.0	 1	    1.00000	    0.00000	 230.0	 1	    1.10000	    0.90000;
	35306	 1	 0.0	 0.0	 0.0	 0.0	 1	    1.00000	    0.00000	 230.0	 1	    1.10000	    0.90000;
	35307	 1	 0.0	 0.0	 0.0	 0.0	 1	    1.00000	    0.00000	 138.0	 1	    1.10000	    0.90000;
	35343	 1	 0.0	 0.0	 0.0	 0.0	 1	    1.00000	    0.00000	 230.0	 1	    1.10000	    0.90000;
	35344	 2	 0.0	 0.0	 0.0	 48.1477067132	 1	    1.00000	    0.00000	 138.0	 1	    1.10000	    0.90000;
	35345	 1	 43.4	 0.0	 0.0	 0.0	 1	    1.00000	    0.00000	 500.0	 1	    1.10000	    0.90000;
	35346	 1	 0.0	 0.0	 0.0	 0.0	 1	    1.00000	    0.00000	 230.0	 1	    1.10000	    0.90000;
	35347	 1	 0.0	 0.0	 0.0	 0.0	 1	    1.00000	    0.00000	 500.0	 1	    1.10000	    0.90000;
	35348	 2	 0.0	 0.0	 0.0	 0.0	 1	    1.00000	    0.00000	 500.0	 1	    1.10000	    0.90000;
	35349	 1	 0.0	 0.0	 0.0	 0.0	 1	    1.00000	    0.00000	 138.0	 1	    1.10000	    0.90000;
	35350	 1	 0.0	 0.0	 0.0	 0.0	 1	    1.00000	    0.00000	 500.0	 1	    1.10000	    0.90000;
	35351	 2	 0.0	 0.0	 0.0	 0.0	 1	    1.00000	    0.00000	 500.0	 1	    1.10000	    0.90000;
	35352	 1	 0.0	 0.0	 0.0	 0.0	 1	    1.00000	    0.00000	 500.0	 1	    1.10000	    0.90000;
	35353	 2	 0.0	 0.0	 0.0	 0.0	 1	    1.00000	    0.00000	 500.0	 1	    1.10000	    0.90000;
	35354	 2	 0.0	 0.0	 0.0	 0.0	 1	    1.00000	    0.00000	 138.0	 1	    1.10000	    0.90000;
	35355	 2	 0.0	 0.0	 0.0	 0.0	 1	    1.00000	    0.00000	 230.0	 1	    1.10000	    0.90000;
	35356	 2	 0.0	 0.0	 0.0	 0.0	 1	    1.00000	    0.00000	 138.0	 1	    1.10000	    0.90000;
	35357	 1	 0.0	 0.0	 0.0	 0.0	 1	    1.00000	    0.00000	 230.0	 1	    1.10000	    0.90000;
	35358	 1	 0.0	 0.0	 0.0	 0.0	 1	    1.00000	    0.00000	 138.0	 1	    1.10000	    0.90000;
	35359	 1	 0.0	 0.0	 0.0	 0.0	 1	    1.00000	    0.00000	 500.0	 1	    1.10000	    0.90000;
	35360	 1	 0.0	 0.0	 0.0	 0.0	 1	    1.00000	    0.00000	 138.0	 1	    1.10000	    0.90000;
	35361	 1	 0.0	 0.0	 0.0	 0.0	 1	    1.00000	    0.00000	 500.0	 1	    1.10000	    0.90000;
	35362	 1	 0.0	 0.0	 0.0	 0.0	 1	    1.00000	    0.00000	 230.0	 1	    1.10000	    0.90000;
	35364	 1	 0.0	 0.0	 0.0	 0.0	 1	    1.00000	    0.00000	 230.0	 1	    1.10000	    0.90000;
	35365	 1	 0.0	 0.0	 0.0	 0.0	 1	    1.00000	    0.00000	 138.0	 1	    1.10000	    0.90000;
	35366	 2	 0.0	 0.0	 0.0	 0.0	 1	    1.00000	    0.00000	 138.0	 1	    1.10000	    0.90000;
	35367	 1	 0.0	 0.0	 0.0	 0.0	 1	    1.00000	    0.00000	 69.0	 1	    1.10000	    0.90000;
	35368	 2	 0.0	 0.0	 0.0	 0.0	 1	    1.00000	    0.00000	 138.0	 1	    1.10000	    0.90000;
	35369	 2	 0.0	 0.0	 0.0	 0.0	 1	    1.00000	    0.00000	 230.0	 1	    1.10000	    0.90000;
	35370	 1	 0.0	 0.0	 0.0	 0.0	 1	    1.00000	    0.00000	 69.0	 1	    1.10000	    0.90000;
	35371	 2	 0.0	 0.0	 0.0	 0.0	 1	    1.00000	    0.00000	 138.0	 1	    1.10000	    0.90000;
	35372	 1	 0.0	 0.0	 0.0	 0.0	 1	    1.00000	    0.00000	 69.0	 1	    1.10000	    0.90000;
	35373	 1	 0.0	 0.0	 0.0	 0.0	 1	    1.00000	    0.00000	 69.0	 1	    1.10000	    0.90000;
	35374	 1	 0.0	 0.0	 0.0	 0.0	 1	    1.00000	    0.00000	 500.0	 1	    1.10000	    0.90000;
	35375	 1	 0.0	 0.0	 0.0	 0.0	 1	    1.00000	    0.00000	 69.0	 1	    1.10000	    0.90000;
	35376	 1	 0.0	 0.0	 0.0	 0.0	 1	    1.00000	    0.00000	 138.0	 1	    1.10000	    0.90000;
	35424	 1	 3.27	 0.97	 0.0	 0.0	 1	    1.00000	    0.00000	 69.0	 1	    1.10000	    0.90000;
	35425	 1	 2.84	 0.62	 0.0	 0.0	 1	    1.00000	    0.00000	 138.0	 1	    1.10000	    0.90000;
	35426	 1	 0.0	 0.0	 0.0	 0.0	 1	    1.00000	    0.00000	 500.0	 1	    1.10000	    0.90000;
	35427	 1	 5.96	 1.26	 0.0	 0.0	 1	    1.00000	    0.00000	 500.0	 1	    1.10000	    0.90000;
	35428	 1	 18.08	 4.77	 0.0	 0.0	 1	    1.00000	    0.00000	 500.0	 1	    1.10000	    0.90000;
	35429	 1	 0.0	 0.0	 0.0	 0.0	 1	    1.00000	    0.00000	 138.0	 1	    1.10000	    0.90000;
	35430	 1	 0.0	 0.0	 0.0	 0.0	 1	    1.00000	    0.00000	 138.0	 1	    1.10000	    0.90000;
	35431	 1	 28.62	 5.81	 0.0	 0.0	 1	    1.00000	    0.00000	 500.0	 1	    1.10000	    0.90000;
	35432	 1	 15.4	 4.07	 0.0	 0.0	 1	    1.00000	    0.00000	 500.0	 1	    1.10000	    0.90000;
	35433	 1	 0.0	 0.0	 0.0	 0.0	 1	    1.00000	    0.00000	 138.0	 1	    1.10000	    0.90000;
	35434	 1	 3.72	 1.14	 0.0	 0.0	 1	    1.00000	    0.00000	 69.0	 1	    1.10000	    0.90000;
	35435	 1	 4.01	 0.88	 0.0	 0.0	 1	    1.00000	    0.00000	 138.0	 1	    1.10000	    0.90000;
	35436	 1	 9.63	 2.84	 0.0	 0.0	 1	    1.00000	    0.00000	 69.0	 1	    1.10000	    0.90000;
	35437	 1	 6.62	 1.38	 0.0	 0.0	 1	    1.00000	    0.00000	 500.0	 1	    1.10000	    0.90000;
	35438	 1	 27.46	 7.0	 0.0	 0.0	 1	    1.00000	    0.00000	 500.0	 1	    1.10000	    0.90000;
	35439	 1	 10.85	 2.32	 0.0	 0.0	 1	    1.00000	    0.00000	 230.0	 1	    1.10000	    0.90000;
	35440	 1	 13.55	 4.09	 0.0	 0.0	 1	    1.00000	    0.00000	 69.0	 1	    1.10000	    0.90000;
	35441	 1	 0.0	 0.0	 0.0	 0.0	 1	    1.00000	    0.00000	 500.0	 1	    1.10000	    0.90000;
	35442	 1	 12.29	 3.8	 0.0	 0.0	 1	    1.00000	    0.00000	 500.0	 1	    1.10000	    0.90000;
	35443	 1	 0.0	 0.0	 0.0	 0.0	 1	    1.00000	    0.00000	 138.0	 1	    1.10000	    0.90000;
	35444	 1	 6.55	 1.69	 0.0	 0.0	 1	    1.00000	    0.00000	 69.0	 1	    1.10000	    0.90000;
	35445	 1	 0.0	 0.0	 0.0	 0.0	 1	    1.00000	    0.00000	 138.0	 1	    1.10000	    0.90000;
	35446	 1	 15.2	 4.65	 0.0	 0.0	 1	    1.00000	    0.00000	 69.0	 1	    1.10000	    0.90000;
	35447	 1	 10.33	 2.64	 0.0	 0.0	 1	    1.00000	    0.00000	 69.0	 1	    1.10000	    0.90000;
	35448	 1	 11.42	 2.43	 0.0	 0.0	 1	    1.00000	    0.00000	 138.0	 1	    1.10000	    0.90000;
	35449	 1	 0.0	 0.0	 0.0	 0.0	 1	    1.00000	    0.00000	 230.0	 1	    1.10000	    0.90000;
	35450	 1	 5.64	 1.48	 0.0	 0.0	 1	    1.00000	    0.00000	 69.0	 1	    1.10000	    0.90000;
	35451	 1	 8.22	 1.922	 0.0	 0.0	 1	    1.00000	    0.00000	 69.0	 1	    1.10000	    0.90000;
	35452	 1	 0.0	 0.0	 0.0	 0.0	 1	    1.00000	    0.00000	 230.0	 1	    1.10000	    0.90000;
	35453	 1	 6.69	 2.04	 0.0	 0.0	 1	    1.00000	    0.00000	 69.0	 1	    1.10000	    0.90000;
	35454	 1	 6.65	 2.02	 0.0	 0.0	 1	    1.00000	    0.00000	 69.0	 1	    1.10000	    0.90000;
	35455	 1	 0.0	 0.0	 0.0	 0.0	 1	    1.00000	    0.00000	 230.0	 1	    1.10000	    0.90000;
	35456	 1	 13.47	 2.88	 0.0	 0.0	 1	    1.00000	    0.00000	 69.0	 1	    1.10000	    0.90000;
	35457	 1	 25.2	 5.29	 0.0	 0.0	 1	    1.00000	    0.00000	 69.0	 1	    1.10000	    0.90000;
	35458	 1	 15.27	 0.0	 0.0	 0.0	 1	    1.00000	    0.00000	 69.0	 1	    1.10000	    0.90000;
	35459	 1	 6.2	 -1.0	 0.0	 0.0	 1	    1.00000	    0.00000	 69.0	 1	    1.10000	    0.90000;
	35460	 1	 7.68	 -2.03	 0.0	 0.0	 1	    1.00000	    0.00000	 69.0	 1	    1.10000	    0.90000;
	35461	 1	 6.46	 1.325	 0.0	 0.0	 1	    1.00000	    0.00000	 69.0	 1	    1.10000	    0.90000;
	35462	 1	 0.52	 0.11	 0.0	 0.0	 1	    1.00000	    0.00000	 69.0	 1	    1.10000	    0.90000;
	35463	 1	 0.0	 0.0	 0.0	 0.0	 1	    1.00000	    0.00000	 230.0	 1	    1.10000	    0.90000;
	35464	 1	 0.0	 0.0	 0.0	 0.0	 1	    1.00000	    0.00000	 138.0	 1	    1.10000	    0.90000;
	35465	 1	 11.51	 2.52	 0.0	 0.0	 1	    1.00000	    0.00000	 69.0	 1	    1.10000	    0.90000;
	35466	 1	 7.56	 1.539	 0.0	 0.0	 1	    1.00000	    0.00000	 69.0	 1	    1.10000	    0.90000;
	35467	 1	 6.56	 1.516	 0.0	 0.0	 1	    1.00000	    0.00000	 230.0	 1	    1.10000	    0.90000;
	35468	 1	 9.77	 1.899	 0.0	 0.0	 1	    1.00000	    0.00000	 69.0	 1	    1.10000	    0.90000;
	35469	 1	 0.0	 0.0	 0.0	 0.0	 1	    1.00000	    0.00000	 138.0	 1	    1.10000	    0.90000;
	35470	 1	 5.2	 1.072	 0.0	 0.0	 1	    1.00000	    0.00000	 69.0	 1	    1.10000	    0.90000;
	35471	 1	 0.0	 0.0	 0.0	 0.0	 1	    1.00000	    0.00000	 138.0	 1	    1.10000	    0.90000;
	35472	 1	 4.5	 0.904	 0.0	 0.0	 1	    1.00000	    0.00000	 138.0	 1	    1.10000	    0.90000;
	35473	 1	 7.12	 1.46	 0.0	 0.0	 1	    1.00000	    0.00000	 230.0	 1	    1.10000	    0.90000;
	35474	 1	 3.44	 1.01	 0.0	 0.0	 1	    1.00000	    0.00000	 69.0	 1	    1.10000	    0.90000;
	35475	 1	 0.0	 0.0	 0.0	 0.0	 1	    1.00000	    0.00000	 138.0	 1	    1.10000	    0.90000;
	35476	 1	 7.65	 1.63	 0.0	 0.0	 1	    1.00000	    0.00000	 69.0	 1	    1.10000	    0.90000;
	35477	 1	 8.46	 1.961	 0.0	 0.0	 1	    1.00000	    0.00000	 69.0	 1	    1.10000	    0.90000;
	35478	 1	 20.07	 3.998	 0.0	 0.0	 1	    1.00000	    0.00000	 69.0	 1	    1.10000	    0.90000;
	35479	 1	 0.0	 0.0	 0.0	 0.0	 1	    1.00000	    0.00000	 138.0	 1	    1.10000	    0.90000;
	35480	 1	 0.0	 0.0	 0.0	 0.0	 1	    1.00000	    0.00000	 138.0	 1	    1.10000	    0.90000;
	35481	 1	 0.0	 0.0	 0.0	 0.0	 1	    1.00000	    0.00000	 138.0	 1	    1.10000	    0.90000;
	35482	 1	 4.58	 0.934	 0.0	 0.0	 1	    1.00000	    0.00000	 138.0	 1	    1.10000	    0.90000;
	35483	 1	 0.0	 0.0	 0.0	 0.0	 1	    1.00000	    0.00000	 138.0	 1	    1.10000	    0.90000;
	35484	 1	 0.0	 0.0	 0.0	 0.0	 1	    1.00000	    0.00000	 138.0	 1	    1.10000	    0.90000;
	35485	 1	 15.09	 3.2	 0.0	 0.0	 1	    1.00000	    0.00000	 138.0	 1	    1.10000	    0.90000;
	35486	 1	 0.0	 0.0	 0.0	 0.0	 1	    1.00000	    0.00000	 138.0	 1	    1.10000	    0.90000;
	35487	 1	 0.0	 0.0	 0.0	 0.0	 1	    1.00000	    0.00000	 138.0	 1	    1.10000	    0.90000;
	35488	 1	 10.99	 2.89	 0.0	 0.0	 1	    1.00000	    0.00000	 69.0	 1	    1.10000	    0.90000;
	35489	 1	 1.95	 0.42	 0.0	 0.0	 1	    1.00000	    0.00000	 69.0	 1	    1.10000	    0.90000;
	35490	 1	 0.0	 0.0	 0.0	 0.0	 1	    1.00000	    0.00000	 138.0	 1	    1.10000	    0.90000;
	35491	 1	 0.0	 0.0	 0.0	 0.0	 1	    1.00000	    0.00000	 138.0	 1	    1.10000	    0.90000;
	35492	 1	 0.0	 0.0	 0.0	 0.0	 1	    1.00000	    0.00000	 138.0	 1	    1.10000	    0.90000;
	35493	 1	 4.11	 0.87	 0.0	 0.0	 1	    1.00000	    0.00000	 138.0	 1	    1.10000	    0.90000;
	35494	 1	 10.13	 2.16	 0.0	 0.0	 1	    1.00000	    0.00000	 138.0	 1	    1.10000	    0.90000;
	35495	 1	 1.77	 0.53	 0.0	 0.0	 1	    1.00000	    0.00000	 138.0	 1	    1.10000	    0.90000;
	35496	 1	 4.14	 0.88	 0.0	 0.0	 1	    1.00000	    0.00000	 138.0	 1	    1.10000	    0.90000;
	35497	 1	 8.09	 1.77	 0.0	 0.0	 1	    1.00000	    0.00000	 69.0	 1	    1.10000	    0.90000;
	35498	 1	 0.0	 0.0	 0.0	 0.0	 1	    1.00000	    0.00000	 138.0	 1	    1.10000	    0.90000;
	35499	 1	 3.76	 0.881	 0.0	 0.0	 1	    1.00000	    0.00000	 138.0	 1	    1.10000	    0.90000;
	35500	 1	 1.7	 0.45	 0.0	 0.0	 1	    1.00000	    0.00000	 69.0	 1	    1.10000	    0.90000;
	35501	 1	 5.07	 0.0	 0.0	 0.0	 1	    1.00000	    0.00000	 69.0	 1	    1.10000	    0.90000;
	35502	 1	 4.67	 0.0	 0.0	 0.0	 1	    1.00000	    0.00000	 69.0	 1	    1.10000	    0.90000;
	35503	 1	 0.0	 0.0	 0.0	 0.0	 1	    1.00000	    0.00000	 138.0	 1	    1.10000	    0.90000;
	35504	 1	 8.56	 0.0	 0.0	 0.0	 1	    1.00000	    0.00000	 138.0	 1	    1.10000	    0.90000;
	35505	 1	 0.0	 0.0	 0.0	 0.0	 1	    1.00000	    0.00000	 138.0	 1	    1.10000	    0.90000;
	35506	 1	 0.0	 0.0	 0.0	 0.0	 1	    1.00000	    0.00000	 138.0	 1	    1.10000	    0.90000;
	35507	 1	 21.95	 0.0	 0.0	 0.0	 1	    1.00000	    0.00000	 69.0	 1	    1.10000	    0.90000;
	35508	 1	 5.83	 0.0	 0.0	 0.0	 1	    1.00000	    0.00000	 69.0	 1	    1.10000	    0.90000;
	35509	 1	 0.0	 0.0	 0.0	 0.0	 1	    1.00000	    0.00000	 230.0	 1	    1.10000	    0.90000;
	35510	 1	 52.35	 0.0	 0.0	 0.0	 1	    1.00000	    0.00000	 138.0	 1	    1.10000	    0.90000;
	35511	 1	 8.97	 0.0	 0.0	 0.0	 1	    1.00000	    0.00000	 138.0	 1	    1.10000	    0.90000;
	35512	 1	 0.0	 0.0	 0.0	 0.0	 1	    1.00000	    0.00000	 138.0	 1	    1.10000	    0.90000;
	35513	 1	 5.54	 0.0	 0.0	 0.0	 1	    1.00000	    0.00000	 69.0	 1	    1.10000	    0.90000;
	35514	 1	 2.33	 0.2	 0.0	 0.0	 1	    1.00000	    0.00000	 138.0	 1	    1.10000	    0.90000;
	35515	 1	 25.96	 0.0	 0.0	 0.0	 1	    1.00000	    0.00000	 138.0	 1	    1.10000	    0.90000;
	35516	 1	 0.0	 0.0	 0.0	 0.0	 1	    1.00000	    0.00000	 138.0	 1	    1.10000	    0.90000;
	35517	 1	 10.29	 0.0	 0.0	 0.0	 1	    1.00000	    0.00000	 138.0	 1	    1.10000	    0.90000;
	35518	 1	 0.0	 0.0	 0.0	 29.9999859376	 1	    1.00000	    0.00000	 138.0	 1	    1.10000	    0.90000;
	35519	 1	 11.51	 0.0	 0.0	 0.0	 1	    1.00000	    0.00000	 69.0	 1	    1.10000	    0.90000;
	35520	 1	 6.59	 0.0	 0.0	 0.0	 1	    1.00000	    0.00000	 69.0	 1	    1.10000	    0.90000;
	35521	 1	 4.12	 0.0	 0.0	 0.0	 1	    1.00000	    0.00000	 69.0	 1	    1.10000	    0.90000;
	35522	 1	 0.0	 0.0	 0.0	 0.0	 1	    1.00000	    0.00000	 138.0	 1	    1.10000	    0.90000;
	35523	 1	 6.06	 -2.0	 0.0	 0.0	 1	    1.00000	    0.00000	 69.0	 1	    1.10000	    0.90000;
	35524	 1	 0.0	 0.0	 0.0	 0.0	 1	    1.00000	    0.00000	 138.0	 1	    1.10000	    0.90000;
	35525	 1	 5.46	 0.0	 0.0	 0.0	 1	    1.00000	    0.00000	 69.0	 1	    1.10000	    0.90000;
	35526	 1	 8.77	 2.0	 0.0	 0.0	 1	    1.00000	    0.00000	 138.0	 1	    1.10000	    0.90000;
	35527	 1	 6.59	 0.0	 0.0	 0.0	 1	    1.00000	    0.00000	 69.0	 1	    1.10000	    0.90000;
	35528	 1	 5.57	 0.0	 0.0	 0.0	 1	    1.00000	    0.00000	 138.0	 1	    1.10000	    0.90000;
	35529	 1	 6.75	 2.2	 0.0	 0.0	 1	    1.00000	    0.00000	 138.0	 1	    1.10000	    0.90000;
	35530	 1	 0.0	 0.0	 0.0	 0.0	 1	    1.00000	    0.00000	 138.0	 1	    1.10000	    0.90000;
	35532	 1	 4.44	 1.19	 0.0	 0.0	 1	    1.00000	    0.00000	 138.0	 1	    1.10000	    0.90000;
	35533	 1	 20.83	 4.718	 0.0	 0.0	 1	    1.00000	    0.00000	 138.0	 1	    1.10000	    0.90000;
	35534	 1	 4.52	 1.2	 0.0	 0.0	 1	    1.00000	    0.00000	 69.0	 1	    1.10000	    0.90000;
...
];

%% generator data
%	bus	Pg	Qg	Qmax	Qmin	Vg	mBase	status	Pmax	Pmin
mpc.gen = [
	35250	 875.0	 0.0	 378.6	 -378.6	 1.0	 100.0	 1	 1000.0	 750.0;
	35250	 875.0	 0.0	 455.3	 -455.3	 1.0	 100.0	 1	 1000.0	 750.0;
	35250	 875.0	 0.0	 470.3	 -470.3	 1.0	 100.0	 1	 1000.0	 750.0;
	35251	 569.1	 127.2	 550.5	 -296.1	 1.0	 100.0	 1	 888.2	 250.0;
	35251	 569.1	 127.2	 550.5	 -296.1	 1.0	 100.0	 1	 888.2	 250.0;
	35252	 502.75	 101.0	 437.2	 -235.2	 1.0	 100.0	 1	 705.5	 300.0;
	35252	 502.75	 101.0	 437.2	 -235.2	 1.0	 100.0	 1	 705.5	 300.0;
	35252	 502.75	 101.0	 437.2	 -235.2	 1.0	 100.0	 1	 705.5	 300.0;
	35252	 502.75	 101.0	 437.2	 -235.2	 1.0	 100.0	 1	 705.5	 300.0;
	35254	 301.85	 57.8	 250.2	 -134.6	 1.0	 100.0	 1	 403.7	 200.0;
	35254	 137.05	 24.35	 105.4	 -56.7	 1.0	 100.0	 1	 170.1	 104.0;
	35254	 137.05	 24.35	 105.4	 -56.7	 1.0	 100.0	 1	 170.1	 104.0;
	35254	 128.55	 24.35	 105.4	 -56.7	 1.0	 100.0	 1	 170.1	 87.0;
	35254	 124.55	 24.35	 105.4	 -56.7	 1.0	 100.0	 1	 170.1	 79.0;
	35254	 626.9	 113.0	 488.9	 -262.9	 1.0	 100.0	 1	 788.8	 465.0;
	35255	 826.0	 136.35	 590.0	 -317.3	 1.0	 100.0	 1	 952.0	 700.0;
	35255	 171.0	 38.95	 168.6	 -90.7	 1.0	 100.0	 1	 272.0	 70.0;
	35255	 171.0	 38.95	 168.6	 -90.7	 1.0	 100.0	 1	 272.0	 70.0;
	35255	 171.0	 38.95	 168.6	 -90.7	 1.0	 100.0	 1	 272.0	 70.0;
	35257	 216.7	 37.0	 160.1	 -86.1	 1.0	 100.0	 1	 258.4	 175.0;
	35257	 216.7	 37.0	 160.1	 -86.1	 1.0	 100.0	 1	 258.4	 175.0;
	35259	 150.0	 20.4	 130.8	 -90.0	 1.0	 100.0	 1	 270.0	 30.0;
	35264	 146.8615	 26.5	 114.7	 -61.7	 1.0	 100.0	 1	 185.0	 108.723;
	35264	 146.7855	 26.5	 114.7	 -61.7	 1.0	 100.0	 1	 185.0	 108.571;
	35264	 141.525	 26.5	 114.7	 -61.7	 1.0	 100.0	 1	 185.0	 98.05;
	35264	 141.525	 26.5	 114.7	 -61.7	 1.0	 100.0	 1	 185.0	 98.05;
	35264	 197.4	 21.3	 136.6	 -94.0	 1.0	 100.0	 1	 282.0	 112.8;
	35264	 197.4	 21.3	 136.6	 -94.0	 1.0	 100.0	 1	 282.0	 112.8;
	35265	 136.55	 13.85	 88.7	 -61.0	 1.0	 100.0	 1	 183.1	 90.0;
	35265	 136.55	 13.85	 88.7	 -61.0	 1.0	 100.0	 1	 183.1	 90.0;
	35265	 136.55	 13.85	 88.7	 -61.0	 1.0	 100.0	 1	 183.1	 90.0;
	35266	 134.5	 13.5	 86.7	 -59.7	 1.0	 100.0	 1	 179.0	 90.0;
	35276	 48.5	 9.9	 42.8	 -23.0	 1.0	 100.0	 1	 69.0	 28.0;
	35277	 64.5	 5.1	 32.7	 -22.5	 1.0	 100.0	 1	 67.5	 61.5;
	35277	 64.5	 5.1	 32.7	 -22.5	 1.0	 100.0	 1	 67.5	 61.5;
	35281	 50.75	 3.85	 24.9	 -17.2	 1.0	 100.0	 1	 51.5	 50.0;
	35283	 29.65	 10.3	 37.0	 -16.4	 1.0	 100.0	 1	 49.3	 10.0;
	35285	 45.95	 4.2	 24.0	 -15.6	 1.0	 100.0	 1	 46.9	 45.0;
	35288	 37.25	 0.0	 13.3	 -13.3	 1.0	 100.0	 1	 40.5	 34.0;
	35288	 37.25	 0.0	 13.3	 -13.3	 1.0	 100.0	 1	 40.5	 34.0;
	35290	 6.2915	 0.9835	 4.117	 -2.15	 1.0	 100.0	 1	 6.433	 6.15;
	35290	 6.2915	 0.9835	 4.117	 -2.15	 1.0	 100.0	 1	 6.433	 6.15;
	35290	 6.2915	 0.9835	 4.117	 -2.15	 1.0	 100.0	 1	 6.433	 6.15;
	35290	 6.2915	 0.9835	 4.117	 -2.15	 1.0	 100.0	 1	 6.433	 6.15;
	35290	 6.2915	 0.9835	 4.117	 -2.15	 1.0	 100.0	 1	 6.433	 6.15;
	35290	 6.2915	 0.9835	 4.117	 -2.15	 1.0	 100.0	 1	 6.433	 6.15;
	35294	 28.85	 0.0	 11.1	 -11.1	 1.0	 100.0	 1	 33.7	 24.0;
	35294	 28.85	 0.0	 11.1	 -11.1	 1.0	 100.0	 1	 33.7	 24.0;
	35294	 28.85	 0.0	 11.1	 -11.1	 1.0	 100.0	 1	 33.7	 24.0;
	35296	 29.25	 2.25	 14.3	 -9.8	 1.0	 100.0	 1	 29.5	 29.0;
	35296	 29.25	 2.25	 14.3	 -9.8	 1.0	 100.0	 1	 29.5	 29.0;
	35296	 29.25	 2.25	 14.3	 -9.8	 1.0	 100.0	 1	 29.5	 29.0;
	35296	 29.25	 2.25	 14.3	 -9.8	 1.0	 100.0	 1	 29.5	 29.0;
	35296	 29.25	 2.25	 14.3	 -9.8	 1.0	 100.0	 1	 29.5	 29.0;
	35296	 29.25	 2.25	 14.3	 -9.8	 1.0	 100.0	 1	 29.5	 29.0;
	35297	 25.75	 4.2	 18.1	 -9.7	 1.0	 100.0	 1	 29.2	 22.3;
	35297	 25.75	 4.2	 18.1	 -9.7	 1.0	 100.0	 1	 29.2	 22.3;
	35297	 25.75	 4.2	 18.1	 -9.7	 1.0	 100.0	 1	 29.2	 22.3;
	35298	 21.7	 2.15	 13.9	 -9.6	 1.0	 100.0	 1	 28.8	 14.6;
	35298	 20.85	 2.15	 13.9	 -9.6	 1.0	 100.0	 1	 28.8	 12.9;
	35298	 19.25	 2.15	 13.9	 -9.6	 1.0	 100.0	 1	 28.8	 9.7;
	35298	 19.25	 2.15	 13.9	 -9.6	 1.0	 100.0	 1	 28.8	 9.7;
	35300	 25.0	 3.2	 14.7	 -8.3	 1.0	 100.0	 1	 25.0	 25.0;
	35300	 25.0	 3.2	 14.7	 -8.3	 1.0	 100.0	 1	 25.0	 25.0;
	35300	 25.0	 3.2	 14.7	 -8.3	 1.0	 100.0	 1	 25.0	 25.0;
	35300	 25.0	 3.2	 14.7	 -8.3	 1.0	 100.0	 1	 25.0	 25.0;
	35301	 24.25	 0.0	 12.0	 -12.0	 1.0	 100.0	 1	 25.0	 23.5;
	35301	 24.5	 0.0	 12.3	 -12.3	 1.0	 100.0	 1	 25.5	 23.5;
	35303	 23.35	 1.85	 11.8	 -8.1	 1.0	 100.0	 1	 24.3	 22.4;
	35303	 23.3	 1.85	 11.8	 -8.1	 1.0	 100.0	 1	 24.3	 22.3;
	35303	 23.3	 1.85	 11.8	 -8.1	 1.0	 100.0	 1	 24.3	 22.3;
	35344	 493.2	 58.95	 378.4	 -260.5	 1.0	 100.0	 1	 781.4	 205.0;
	35348	 135.45	 0.0	 0.0	 0.0	 1.0	 100.0	 1	 270.0	 0.9;
	35351	 139.15	 13.5	 86.8	 -59.8	 1.0	 100.0	 1	 179.3	 99.0;
	35351	 139.15	 13.5	 86.8	 -59.8	 1.0	 100.0	 1	 179.3	 99.0;
	35351	 139.15	 13.5	 86.8	 -59.8	 1.0	 100.0	 1	 179.3	 99.0;
	35351	 88.0	 9.2	 59.1	 -40.7	 1.0	 100.0	 1	 122.0	 54.0;
	35351	 88.0	 9.2	 59.1	 -40.7	 1.0	 100.0	 1	 122.0	 54.0;
	35351	 88.0	 9.2	 59.1	 -40.7	 1.0	 100.0	 1	 122.0	 54.0;
	35353	 112.25	 13.5	 86.5	 -59.5	 1.0	 100.0	 1	 178.5	 46.0;
	35353	 112.25	 13.5	 86.5	 -59.5	 1.0	 100.0	 1	 178.5	 46.0;
	35353	 112.25	 13.5	 86.5	 -59.5	 1.0	 100.0	 1	 178.5	 46.0;
	35353	 97.5	 11.8	 75.6	 -52.0	 1.0	 100.0	 1	 156.0	 39.0;
	35353	 97.5	 11.8	 75.6	 -52.0	 1.0	 100.0	 1	 156.0	 39.0;
	35353	 97.5	 11.8	 75.6	 -52.0	 1.0	 100.0	 1	 156.0	 39.0;
	35354	 133.3	 25.25	 109.4	 -58.9	 1.0	 100.0	 1	 176.6	 90.0;
	35354	 133.3	 25.25	 109.4	 -58.9	 1.0	 100.0	 1	 176.6	 90.0;
	35354	 159.05	 28.4	 122.8	 -66.0	 1.0	 100.0	 1	 198.1	 120.0;
	35355	 135.8	 25.25	 109.4	 -58.9	 1.0	 100.0	 1	 176.6	 95.0;
	35355	 135.8	 25.25	 109.4	 -58.9	 1.0	 100.0	 1	 176.6	 95.0;
	35356	 85.65	 14.5	 62.8	 -33.8	 1.0	 100.0	 1	 101.3	 70.0;
	35366	 35.5	 6.7	 29.1	 -15.7	 1.0	 100.0	 1	 47.0	 24.0;
	35366	 35.5	 6.7	 29.1	 -15.7	 1.0	 100.0	 1	 47.0	 24.0;
	35366	 35.5	 6.7	 29.1	 -15.7	 1.0	 100.0	 1	 47.0	 24.0;
	35368	 31.45	 3.15	 20.3	 -14.0	 1.0	 100.0	 1	 41.9	 21.0;
	35368	 31.5	 6.6	 28.5	 -15.3	 1.0	 100.0	 1	 46.0	 17.0;
	35368	 33.0	 7.05	 30.4	 -16.3	 1.0	 100.0	 1	 49.0	 17.0;
	35369	 69.4	 15.55	 67.4	 -36.3	 1.0	 100.0	 1	 108.8	 30.0;
	35369	 31.45	 3.15	 20.3	 -14.0	 1.0	 100.0	 1	 41.9	 21.0;
	35369	 367.15	 82.75	 358.2	 -192.7	 1.0	 100.0	 1	 578.0	 156.3;
	35371	 18.6	 2.9	 16.5	 -10.7	 1.0	 100.0	 1	 32.2	 5.0;
	75446	 189.6	 38.55	 166.8	 -89.7	 1.0	 100.0	 1	 269.2	 110.0;
	75446	 204.6	 42.85	 185.4	 -99.7	 1.0	 100.0	 1	 299.2	 110.0;
	75453	 150.0	 56.25	 202.5	 -90.0	 1.0	 100.0	 1	 270.0	 30.0;
	75457	 34.75	 4.5	 28.8	 -19.8	 1.0	 100.0	 1	 59.5	 10.0;
	75457	 34.75	 4.5	 28.8	 -19.8	 1.0	 100.0	 1	 59.5	 10.0;
	75457	 34.75	 4.5	 28.8	 -19.8	 1.0	 100.0	 1	 59.5	 10.0;
	75457	 438.5	 41.55	 266.4	 -183.3	 1.0	 100.0	 1	 550.0	 327.0;
	75457	 34.75	 4.5	 28.8	 -19.8	 1.0	 100.0	 1	 59.5	 10.0;
	75457	 34.75	 4.5	 28.8	 -19.8	 1.0	 100.0	 1	 59.5	 10.0;
	75457	 34.75	 4.5	 28.8	 -19.8	 1.0	 100.0	 1	 59.5	 10.0;
	75457	 34.75	 4.5	 28.8	 -19.8	 1.0	 100.0	 1	 59.5	 10.0;
	75457	 34.75	 4.5	 28.8	 -19.8	 1.0	 100.0	 1	 59.5	 10.0;
	75462	 28.7605	 3.1165	 15.85	 -9.617	 1.0	 100.0	 1	 28.833	 28.688;
	75462	 28.7605	 3.1165	 15.85	 -9.617	 1.0	 100.0	 1	 28.833	 28.688;
	75462	 28.7605	 3.1165	 15.85	 -9.617	 1.0	 100.0	 1	 28.833	 28.688;
	75462	 28.7605	 3.1165	 15.85	 -9.617	 1.0	 100.0	 1	 28.833	 28.688;
	75462	 28.7605	 3.1165	 15.85	 -9.617	 1.0	 100.0	 1	 28.833	 28.688;
	75462	 28.7605	 3.1165	 15.85	 -9.617	 1.0	 100.0	 1	 28.833	 28.688;
	75466	 694.4	 113.0	 488.9	 -262.9	 1.0	 100.0	 1	 788.8	 600.0;
	75471	 86.75	 6.8	 43.8	 -30.2	 1.0	 100.0	 1	 90.5	 83.0;
	75471	 86.75	 6.8	 43.8	 -30.2	 1.0	 100.0	 1	 90.5	 83.0;
	75481	 45.5	 0.0	 16.5	 -16.5	 1.0	 100.0	 1	 50.2	 40.8;
	75481	 45.5	 0.0	 16.5	 -16.5	 1.0	 100.0	 1	 50.2	 40.8;
	75481	 45.5	 0.0	 16.5	 -16.5	 1.0	 100.0	 1	 50.2	 40.8;
	75481	 50.4	 0.0	 19.7	 -19.7	 1.0	 100.0	 1	 60.0	 40.8;
	75483	 42.25	 3.25	 20.7	 -14.2	 1.0	 100.0	 1	 42.7	 41.8;
	75483	 42.15	 3.25	 20.7	 -14.2	 1.0	 100.0	 1	 42.7	 41.6;
	75483	 42.15	 3.25	 20.7	 -14.2	 1.0	 100.0	 1	 42.7	 41.6;
	75487	 31.35	 2.65	 17.0	 -11.7	 1.0	 100.0	 1	 35.1	 27.6;
	75487	 35.8	 3.3	 21.1	 -14.5	 1.0	 100.0	 1	 43.6	 28.0;
	75487	 35.75	 3.3	 21.1	 -14.5	 1.0	 100.0	 1	 43.6	 27.9;
	75487	 31.6	 2.7	 17.4	 -12.0	 1.0	 100.0	 1	 36.0	 27.2;
	75487	 30.25	 2.65	 17.0	 -11.7	 1.0	 100.0	 1	 35.1	 25.4;
	75487	 30.05	 2.65	 17.0	 -11.7	 1.0	 100.0	 1	 35.1	 25.0;
	75487	 29.3	 2.65	 17.0	 -11.7	 1.0	 100.0	 1	 35.1	 23.5;
	75487	 29.25	 2.65	 17.0	 -11.7	 1.0	 100.0	 1	 35.1	 23.4;
	75487	 29.25	 2.65	 17.0	 -11.7	 1.0	 100.0	 1	 35.1	 23.4;
	75487	 29.2	 2.65	 17.0	 -11.7	 1.0	 100.0	 1	 35.1	 23.3;
	75487	 29.05	 2.65	 17.0	 -11.7	 1.0	 100.0	 1	 35.1	 23.0;
	75493	 52.6	 4.1	 26.2	 -18.0	 1.0	 100.0	 1	 54.0	 51.2;
	75493	 23.6	 2.2	 14.1	 -9.7	 1.0	 100.0	 1	 29.2	 18.0;
	75493	 23.6	 2.2	 14.1	 -9.7	 1.0	 100.0	 1	 29.2	 18.0;
	75493	 23.6	 2.2	 14.1	 -9.7	 1.0	 100.0	 1	 29.2	 18.0;
	75493	 23.6	 2.2	 14.1	 -9.7	 1.0	 100.0	 1	 29.2	 18.0;
	75493	 23.6	 2.2	 14.1	 -9.7	 1.0	 100.0	 1	 29.2	 18.0;
	75493	 23.6	 2.2	 14.1	 -9.7	 1.0	 100.0	 1	 29.2	 18.0;
	75493	 23.6	 2.2	 14.1	 -9.7	 1.0	 100.0	 1	 29.2	 18.0;
	75493	 28.0	 2.7	 17.4	 -12.0	 1.0	 100.0	 1	 36.0	 20.0;
	75493	 22.0	 4.8	 17.3	 -7.7	 1.0	 100.0	 1	 23.0	 21.0;
	75493	 22.0	 4.8	 17.3	 -7.7	 1.0	 100.0	 1	 23.0	 21.0;
	75493	 52.0	 4.1	 26.2	 -18.0	 1.0	 100.0	 1	 54.0	 50.0;
	75493	 22.0	 4.8	 17.3	 -7.7	 1.0	 100.0	 1	 23.0	 21.0;
	75493	 22.0	 4.8	 17.3	 -7.7	 1.0	 100.0	 1	 23.0	 21.0;
	75493	 52.0	 4.1	 26.2	 -18.0	 1.0	 100.0	 1	 54.0	 50.0;
	75493	 23.6	 1.9	 12.2	 -8.4	 1.0	 100.0	 1	 25.2	 22.0;
	75493	 25.6	 2.2	 14.1	 -9.7	 1.0	 100.0	 1	 29.2	 22.0;
	75493	 21.6	 1.9	 12.2	 -8.4	 1.0	 100.0	 1	 25.2	 18.0;
	75493	 25.45	 2.35	 15.0	 -10.3	 1.0	 100.0	 1	 30.9	 20.0;
	75493	 25.45	 2.35	 15.0	 -10.3	 1.0	 100.0	 1	 30.9	 20.0;
	75493	 25.45	 2.35	 15.0	 -10.3	 1.0	 100.0	 1	 30.9	 20.0;
	75495	 17.75	 0.0	 6.7	 -6.7	 1.0	 100.0	 1	 20.5	 15.0;
	75495	 17.75	 0.0	 6.7	 -6.7	 1.0	 100.0	 1	 20.5	 15.0;
	75495	 17.75	 0.0	 6.7	 -6.7	 1.0	 100.0	 1	 20.5	 15.0;
	75495	 17.75	 0.0	 6.7	 -6.7	 1.0	 100.0	 1	 20.5	 15.0;
	75496	 49.4	 10.4	 37.5	 -16.7	 1.0	 100.0	 1	 50.0	 48.8;
	75496	 49.4	 10.4	 37.5	 -16.7	 1.0	 100.0	 1	 50.0	 48.8;
	75496	 49.4	 10.4	 37.5	 -16.7	 1.0	 100.0	 1	 50.0	 48.8;
	75496	 19.75	 4.15	 15.0	 -6.7	 1.0	 100.0	 1	 20.0	 19.5;
	75501	 147.75	 26.6	 115.0	 -61.8	 1.0	 100.0	 1	 185.5	 110.0;
	75501	 147.75	 26.6	 115.0	 -61.8	 1.0	 100.0	 1	 185.5	 110.0;
	75501	 147.75	 26.6	 115.0	 -61.8	 1.0	 100.0	 1	 185.5	 110.0;
	75501	 356.65	 78.5	 339.8	 -182.8	 1.0	 100.0	 1	 548.3	 165.0;
	75501	 356.65	 78.5	 339.8	 -182.8	 1.0	 100.0	 1	 548.3	 165.0;
	75503	 367.3	 78.0	 337.5	 -181.5	 1.0	 100.0	 1	 544.6	 190.0;
	75503	 486.5	 59.1	 379.2	 -261.0	 1.0	 100.0	 1	 783.0	 190.0;
	75531	 42.405	 7.95	 37.9	 -22.0	 1.0	 100.0	 1	 66.0	 18.81;
	75533	 47.5	 8.45	 36.6	 -19.7	 1.0	 100.0	 1	 59.0	 36.0;
	75533	 47.5	 8.45	 36.6	 -19.7	 1.0	 100.0	 1	 59.0	 36.0;
	75533	 47.5	 8.45	 36.6	 -19.7	 1.0	 100.0	 1	 59.0	 36.0;
	75533	 68.0	 11.85	 51.4	 -27.7	 1.0	 100.0	 1	 83.0	 53.0;
	75533	 68.25	 11.95	 51.7	 -27.8	 1.0	 100.0	 1	 83.5	 53.0;
];

%% generator cost data
%	2	startup	shutdown	n	c(n-1)	...	c0
mpc.gencost = [
	2	 0.0	 0.0	 3	   0.000000	   0.000000	   0.000000;
	2	 0.0	 0.0	 3	   0.000000	   0.000000	   0.000000;
	2	 0.0	 0.0	 3	   0.000000	   0.000000	   0.000000;
	2	 0.0	 0.0	 3	   0.000000	   0.000000	   0.000000;
	2	 0.0	 0.0	 3	   0.000000	   0.000000	   0.000000;
	2	 0.0	 0.0	 3	   0.001729	   9.729000	   0.000000;
	2	 0.0	 0.0	 3	   0.001729	  10.940000	   0.000000;
	2	 0.0	 0.0	 3	   0.001729	  11.240000	   0.000000;
	2	 0.0	 0.0	 3	   0.001729	  10.630000	   0.000000;
	2	 0.0	 0.0	 3	   0.007322	   3.511000	  -2.461000;
2	0.0	0.0	3	0.2	58.290000	-640.400000;
2	0.0	0.0	3	0.2	56.280000	-640.400000;
	2	 0.0	 0.0	 3	   0.032260	  49.440000	  -4.867000;
	2	 0.0	 0.0	 3	   0.032280	  48.310000	  -4.253000;
	2	 0.0	 0.0	 3	   0.003172	   3.484000	  -2.757000;
2	0.0	0.0	3	0.2	13.280000	-1064.000000;
	2	 0.0	 0.0	 3	   0.004972	  12.220000	   0.000000;
	2	 0.0	 0.0	 3	   0.004972	  11.580000	   0.000000;
	2	 0.0	 0.0	 3	   0.004972	  10.050000	   0.000000;
	2	 0.0	 0.0	 3	   0.026260	  14.900000	 -10.450000;
	2	 0.0	 0.0	 3	   0.026260	  13.730000	 -10.450000;
	2	 0.0	 0.0	 3	   0.026390	  14.130000	  -2.315000;
	2	 0.0	 0.0	 3	   0.032230	  11.960000	  -6.705000;
	2	 0.0	 0.0	 3	   0.032230	  12.100000	  -6.687000;
	2	 0.0	 0.0	 3	   0.032270	  12.460000	  -5.586000;
	2	 0.0	 0.0	 3	   0.032270	  11.900000	  -5.586000;
	2	 0.0	 0.0	 3	   0.026360	  13.880000	  -4.795000;
	2	 0.0	 0.0	 3	   0.026360	  13.820000	  -4.796000;
	2	 0.0	 0.0	 3	   0.032280	  11.920000	  -4.937000;
	2	 0.0	 0.0	 3	   0.032280	  11.720000	  -4.937000;
	2	 0.0	 0.0	 3	   0.032280	  11.100000	  -4.937000;
	2	 0.0	 0.0	 3	   0.032270	  11.060000	  -4.989000;
2	0.0	0.0	3	0.2	33.550000	-88.160000;
2	0.0	0.0	3	0.2	18.850000	-262.200000;
2	0.0	0.0	3	0.2	19.300000	-262.200000;
2	0.0	0.0	3	0.2	0.005882	0.000000;
2	0.0	0.0	3	0.2	18.200000	-23.320000;
2	0.0	0.0	3	0.2	0.004762	0.000000;
2	0.0	0.0	3	0.2	15.420000	-88.300000;
2	0.0	0.0	3	0.2	16.920000	-88.300000;
2	0.0	0.0	3	0.2	0.020700	0.000000;
2	0.0	0.0	3	0.2	0.020700	0.000000;
2	0.0	0.0	3	0.2	0.020700	0.000000;
2	0.0	0.0	3	0.2	0.020700	0.000000;
2	0.0	0.0	3	0.2	0.020700	0.000000;
2	0.0	0.0	3	0.2	0.020700	0.000000;
2	0.0	0.0	3	0.2	16.270000	-53.800000;
2	0.0	0.0	3	0.2	14.990000	-53.800000;
2	0.0	0.0	3	0.2	16.580000	-53.800000;
2	0.0	0.0	3	0.2	0.014290	0.000000;
2	0.0	0.0	3	0.2	0.014290	0.000000;
2	0.0	0.0	3	0.2	0.014290	0.000000;
2	0.0	0.0	3	0.2	0.014290	0.000000;
2	0.0	0.0	3	0.2	0.014290	0.000000;
2	0.0	0.0	3	0.2	0.014290	0.000000;
2	0.0	0.0	3	0.2	14.480000	-42.600000;
2	0.0	0.0	3	0.2	16.400000	-42.600000;
2	0.0	0.0	3	0.2	14.170000	-42.600000;
2	0.0	0.0	3	0.2	14.750000	-30.910000;
2	0.0	0.0	3	0.2	15.530000	-28.560000;
2	0.0	0.0	3	0.2	13.010000	-24.210000;
2	0.0	0.0	3	0.2	14.460000	-24.210000;
2	0.0	0.0	3	0.2	0.050000	-1.245000;
2	0.0	0.0	3	0.2	0.050000	-1.245000;
2	0.0	0.0	3	0.2	0.050000	-1.245000;
2	0.0	0.0	3	0.2	0.050000	-1.245000;
2	0.0	0.0	3	0.2	0.005882	0.000000;
2	0.0	0.0	3	0.2	0.004545	0.000000;
2	0.0	0.0	3	0.2	0.004762	0.000000;
2	0.0	0.0	3	0.2	0.004545	0.000000;
2	0.0	0.0	3	0.2	0.004545	0.000000;
	2	 0.0	 0.0	 3	   0.002818	  26.040000	  -1.005000;
	2	 0.0	 0.0	 3	   0.026400	  13.700000	  -1.823000;
	2	 0.0	 0.0	 3	   0.032250	  10.670000	  -5.800000;
	2	 0.0	 0.0	 3	   0.032250	  12.330000	  -5.800000;
	2	 0.0	 0.0	 3	   0.032250	  11.750000	  -5.800000;
2	0.0	0.0	3	0.2	24.480000	-76.230000;
2	0.0	0.0	3	0.2	23.790000	-76.230000;
2	0.0	0.0	3	0.2	23.530000	-76.230000;
	2	 0.0	 0.0	 3	   0.032350	  10.920000	  -2.638000;
	2	 0.0	 0.0	 3	   0.032350	  10.720000	  -2.638000;
	2	 0.0	 0.0	 3	   0.032350	  10.830000	  -2.638000;
	2	 0.0	 0.0	 3	   0.032330	  10.950000	  -2.267000;
	2	 0.0	 0.0	 3	   0.032330	  12.320000	  -2.267000;
	2	 0.0	 0.0	 3	   0.032330	  12.050000	  -2.267000;
	2	 0.0	 0.0	 3	   0.032270	  11.770000	  -5.023000;
	2	 0.0	 0.0	 3	   0.032270	  12.370000	  -5.023000;
2	0.0	0.0	3	0.2	24.340000	-247.400000;
	2	 0.0	 0.0	 3	   0.032250	  12.160000	  -5.468000;
	2	 0.0	 0.0	 3	   0.032250	  10.860000	  -5.469000;
2	0.0	0.0	3	0.2	22.440000	-54.680000;
2	0.0	0.0	3	0.2	18.800000	-34.480000;
2	0.0	0.0	3	0.2	18.210000	-34.480000;
2	0.0	0.0	3	0.2	18.790000	-34.480000;
2	0.0	0.0	3	0.2	18.420000	-27.070000;
2	0.0	0.0	3	0.2	36.040000	-68.000000;
2	0.0	0.0	3	0.2	33.290000	-73.730000;
2	0.0	0.0	3	0.2	31.260000	-107.200000;
2	0.0	0.0	3	0.2	18.270000	-27.070000;
	2	 0.0	 0.0	 3	   0.002830	  26.930000	   0.000000;
2	0.0	0.0	3	0.2	34.100000	-36.630000;
2	0.0	0.0	3	0.2	12.950000	-190.900000;
2	0.0	0.0	3	0.2	12.320000	-201.300000;
	2	 0.0	 0.0	 3	   0.026390	  13.580000	  -2.315000;
2	0.0	0.0	3	0.2	18.930000	-31.650000;
2	0.0	0.0	3	0.2	17.640000	-31.650000;
2	0.0	0.0	3	0.2	16.960000	-31.650000;
2	0.0	0.0	3	0.2	12.200000	-395.300000;
2	0.0	0.0	3	0.2	18.260000	-31.650000;
2	0.0	0.0	3	0.2	18.060000	-31.650000;
2	0.0	0.0	3	0.2	19.330000	-31.650000;
2	0.0	0.0	3	0.2	17.540000	-31.650000;
2	0.0	0.0	3	0.2	18.090000	-31.650000;
2	0.0	0.0	3	0.2	0.028990	0.000000;
2	0.0	0.0	3	0.2	0.028990	0.000000;
2	0.0	0.0	3	0.2	0.028990	0.000000;
2	0.0	0.0	3	0.2	0.028990	0.000000;
2	0.0	0.0	3	0.2	0.028990	0.000000;
2	0.0	0.0	3	0.2	0.028990	0.000000;
2	0.0	0.0	3	0.2	11.540000	-888.500000;
2	0.0	0.0	3	0.2	15.930000	-158.200000;
2	0.0	0.0	3	0.2	14.050000	-158.200000;
2	0.0	0.0	3	0.2	18.770000	-132.200000;
2	0.0	0.0	3	0.2	17.780000	-132.200000;
2	0.0	0.0	3	0.2	17.390000	-132.200000;
2	0.0	0.0	3	0.2	18.410000	-164.700000;
2	0.0	0.0	3	0.2	0.009091	0.000000;
2	0.0	0.0	3	0.2	0.007692	0.000000;
2	0.0	0.0	3	0.2	0.007692	0.000000;
2	0.0	0.0	3	0.2	15.610000	-62.980000;
2	0.0	0.0	3	0.2	16.750000	-83.410000;
2	0.0	0.0	3	0.2	16.170000	-83.200000;
2	0.0	0.0	3	0.2	16.670000	-64.220000;
2	0.0	0.0	3	0.2	16.220000	-59.070000;
2	0.0	0.0	3	0.2	14.700000	-58.360000;
2	0.0	0.0	3	0.2	14.690000	-55.730000;
2	0.0	0.0	3	0.2	14.660000	-55.560000;
2	0.0	0.0	3	0.2	16.170000	-55.560000;
2	0.0	0.0	3	0.2	14.660000	-55.380000;
2	0.0	0.0	3	0.2	15.420000	-54.860000;
2	0.0	0.0	3	0.2	0.003333	0.000000;
2	0.0	0.0	3	0.2	14.340000	-36.330000;
2	0.0	0.0	3	0.2	14.590000	-36.330000;
2	0.0	0.0	3	0.2	14.850000	-36.330000;
2	0.0	0.0	3	0.2	14.710000	-36.330000;
2	0.0	0.0	3	0.2	15.310000	-36.330000;
2	0.0	0.0	3	0.2	14.560000	-36.330000;
2	0.0	0.0	3	0.2	15.400000	-36.330000;
2	0.0	0.0	3	0.2	15.330000	-51.350000;
2	0.0	0.0	3	0.2	0.004545	0.000000;
2	0.0	0.0	3	0.2	0.004545	0.000000;
2	0.0	0.0	3	0.2	0.002381	0.000000;
2	0.0	0.0	3	0.2	0.004545	0.000000;
2	0.0	0.0	3	0.2	0.004545	0.000000;
2	0.0	0.0	3	0.2	0.002381	0.000000;
2	0.0	0.0	3	0.2	0.002941	0.000000;
2	0.0	0.0	3	0.2	14.710000	-42.160000;
2	0.0	0.0	3	0.2	15.210000	-30.150000;
2	0.0	0.0	3	0.2	14.940000	-42.140000;
2	0.0	0.0	3	0.2	13.760000	-42.140000;
2	0.0	0.0	3	0.2	13.810000	-42.140000;
2	0.0	0.0	3	0.2	14.320000	-20.320000;
2	0.0	0.0	3	0.2	15.600000	-20.320000;
2	0.0	0.0	3	0.2	12.810000	-20.320000;
2	0.0	0.0	3	0.2	12.750000	-20.320000;
2	0.0	0.0	3	0.2	0.007143	0.000000;
2	0.0	0.0	3	0.2	0.007143	0.000000;
2	0.0	0.0	3	0.2	0.007143	0.000000;
2	0.0	0.0	3	0.2	0.014290	0.000000;
	2	 0.0	 0.0	 3	   0.032230	  11.190000	  -6.842000;
	2	 0.0	 0.0	 3	   0.032230	  10.820000	  -6.842000;
	2	 0.0	 0.0	 3	   0.032230	  12.490000	  -6.842000;
	2	 0.0	 0.0	 3	   0.001961	  10.370000	   0.000000;
	2	 0.0	 0.0	 3	   0.001961	  11.360000	   0.000000;
	2	 0.0	 0.0	 3	   0.003135	  23.700000	   0.000000;
	2	 0.0	 0.0	 3	   0.002815	  25.560000	   0.000000;
2	0.0	0.0	3	0.2	34.070000	-71.090000;
2	0.0	0.0	3	0.2	33.950000	-108.300000;
2	0.0	0.0	3	0.2	34.250000	-108.300000;
2	0.0	0.0	3	0.2	36.620000	-108.300000;
2	0.0	0.0	3	0.2	22.670000	-34.640000;
2	0.0	0.0	3	0.2	21.760000	-34.910000;
];

%% storage data
%	bus	energy	energy_rating	charge_rating	discharge_rating	thermal_rating	qmin	qmax	r	x	standby_loss	status
mpc.storage = [
	35580	0.0	0.0	1.00	600.0000	300.0000	216.0000	0.9	0.85	1000	-1000	1000	0.1	0.01	0	0	1;
	36372	0.0	0.0	1.00	525.0450	262.5225	189.0162	0.9	0.85	1000	-1000	1000	0.1	0.01	0	0	1;
	35596	0.0	0.0	1.00	256.9350	128.4675	92.4966	0.9	0.85	1000	-1000	1000	0.1	0.01	0	0	1;
	75829	0.0	0.0	1.00	240.7200	120.3600	86.6592	0.9	0.85	1000	-1000	1000	0.1	0.01	0	0	1;
	75890	0.0	0.0	1.00	239.3100	119.6550	86.1516	0.9	0.85	1000	-1000	1000	0.1	0.01	0	0	1;
	36253	0.0	0.0	1.00	218.4900	109.2450	78.6564	0.9	0.85	1000	-1000	1000	0.1	0.01	0	0	1;
	75845	0.0	0.0	1.00	197.1150	98.5575	70.9614	0.9	0.85	1000	-1000	1000	0.1	0.01	0	0	1;
	38016	0.0	0.0	1.00	183.9150	91.9575	66.2094	0.9	0.85	1000	-1000	1000	0.1	0.01	0	0	1;
	36590	0.0	0.0	1.00	172.0950	86.0475	61.9542	0.9	0.85	1000	-1000	1000	0.1	0.01	0	0	1;
	75948	0.0	0.0	1.00	161.9700	80.9850	58.3092	0.9	0.85	1000	-1000	1000	0.1	0.01	0	0	1;
	38360	0.0	0.0	1.00	160.4100	80.2050	57.7476	0.9	0.85	1000	-1000	1000	0.1	0.01	0	0	1;
	75640	0.0	0.0	1.00	159.6900	79.8450	57.4884	0.9	0.85	1000	-1000	1000	0.1	0.01	0	0	1;
	36239	0.0	0.0	1.00	156.6450	78.3225	56.3922	0.9	0.85	1000	-1000	1000	0.1	0.01	0	0	1;
	75746	0.0	0.0	1.00	156.5250	78.2625	56.3490	0.9	0.85	1000	-1000	1000	0.1	0.01	0	0	1;
	75766	0.0	0.0	1.00	141.6300	70.8150	50.9868	0.9	0.85	1000	-1000	1000	0.1	0.01	0	0	1;
	36254	0.0	0.0	1.00	133.6350	66.8175	48.1086	0.9	0.85	1000	-1000	1000	0.1	0.01	0	0	1;
	75708	0.0	0.0	1.00	132.3300	66.1650	47.6388	0.9	0.85	1000	-1000	1000	0.1	0.01	0	0	1;
	36359	0.0	0.0	1.00	115.0500	57.5250	41.4180	0.9	0.85	1000	-1000	1000	0.1	0.01	0	0	1;
	75724	0.0	0.0	1.00	111.0750	55.5375	39.9870	0.9	0.85	1000	-1000	1000	0.1	0.01	0	0	1;
	38285	0.0	0.0	1.00	110.7150	55.3575	39.8574	0.9	0.85	1000	-1000	1000	0.1	0.01	0	0	1;
	75650	0.0	0.0	1.00	105.6150	52.8075	38.0214	0.9	0.85	1000	-1000	1000	0.1	0.01	0	0	1;
	75703	0.0	0.0	1.00	102.6600	51.3300	36.9576	0.9	0.85	1000	-1000	1000	0.1	0.01	0	0	1;
	36487	0.0	0.0	1.00	99.0300	49.5150	35.6508	0.9	0.85	1000	-1000	1000	0.1	0.01	0	0	1;
	36141	0.0	0.0	1.00	96.8700	48.4350	34.8732	0.9	0.85	1000	-1000	1000	0.1	0.01	0	0	1;
	75808	0.0	0.0	1.00	96.4350	48.2175	34.7166	0.9	0.85	1000	-1000	1000	0.1	0.01	0	0	1;
	76236	0.0	0.0	1.00	96.3600	48.1800	34.6896	0.9	0.85	1000	-1000	1000	0.1	0.01	0	0	1;
	76051	0.0	0.0	1.00	95.2050	47.6025	34.2738	0.9	0.85	1000	-1000	1000	0.1	0.01	0	0	1;
	76052	0.0	0.0	1.00	94.7850	47.3925	34.1226	0.9	0.85	1000	-1000	1000	0.1	0.01	0	0	1;
	36424	0.0	0.0	1.00	93.4500	46.7250	33.6420	0.9	0.85	1000	-1000	1000	0.1	0.01	0	0	1;
	35555	0.0	0.0	1.00	89.7450	44.8725	32.3082	0.9	0.85	1000	-1000	1000	0.1	0.01	0	0	1;
	76130	0.0	0.0	1.00	89.7000	44.8500	32.2920	0.9	0.85	1000	-1000	1000	0.1	0.01	0	0	1;
	36300	0.0	0.0	1.00	89.6850	44.8425	32.2866	0.9	0.85	1000	-1000	1000	0.1	0.01	0	0	1;
	75581	0.0	0.0	1.00	85.3500	42.6750	30.7260	0.9	0.85	1000	-1000	1000	0.1	0.01	0	0	1;
	36090	0.0	0.0	1.00	83.1300	41.5650	29.9268	0.9	0.85	1000	-1000	1000	0.1	0.01	0	0	1;
	76148	0.0	0.0	1.00	82.2750	41.1375	29.6190	0.9	0.85	1000	-1000	1000	0.1	0.01	0	0	1;
	75768	0.0	0.0	1.00	81.0150	40.5075	29.1654	0.9	0.85	1000	-1000	1000	0.1	0.01	0	0	1;
	36361	0.0	0.0	1.00	80.9250	40.4625	29.1330	0.9	0.85	1000	-1000	1000	0.1	0.01	0	0	1;
	75737	0.0	0.0	1.00	78.9750	39.4875	28.4310	0.9	0.85	1000	-1000	1000	0.1	0.01	0	0	1;
	37896	0.0	0.0	1.00	78.9600	39.4800	28.4256	0.9	0.85	1000	-1000	1000	0.1	0.01	0	0	1;
	35510	0.0	0.0	1.00	78.5250	39.2625	28.2690	0.9	0.85	1000	-1000	1000	0.1	0.01	0	0	1;
	76015	0.0	0.0	1.00	78.3150	39.1575	28.1934	0.9	0.85	1000	-1000	1000	0.1	0.01	0	0	1;
	75692	0.0	0.0	1.00	78.1050	39.0525	28.1178	0.9	0.85	1000	-1000	1000	0.1	0.01	0	0	1;
	75795	0.0	0.0	1.00	76.2750	38.1375	27.4590	0.9	0.85	1000	-1000	1000	0.1	0.01	0	0	1;
	75940	0.0	0.0	1.00	75.2850	37.6425	27.1026	0.9	0.85	1000	-1000	1000	0.1	0.01	0	0	1;
	36594	0.0	0.0	1.00	74.6250	37.3125	26.8650	0.9	0.85	1000	-1000	1000	0.1	0.01	0	0	1;
	75888	0.0	0.0	1.00	74.4900	37.2450	26.8164	0.9	0.85	1000	-1000	1000	0.1	0.01	0	0	1;
	76076	0.0	0.0	1.00	74.1000	37.0500	26.6760	0.9	0.85	1000	-1000	1000	0.1	0.01	0	0	1;
	75757	0.0	0.0	1.00	73.5900	36.7950	26.4924	0.9	0.85	1000	-1000	1000	0.1	0.01	0	0	1;
	35709	0.0	0.0	1.00	73.1850	36.5925	26.3466	0.9	0.85	1000	-1000	1000	0.1	0.01	0	0	1;
	75975	0.0	0.0	1.00	71.5350	35.7675	25.7526	0.9	0.85	1000	-1000	1000	0.1	0.01	0	0	1;
	76070	0.0	0.0	1.00	71.3250	35.6625	25.6770	0.9	0.85	1000	-1000	1000	0.1	0.01	0	0	1;
	36292	0.0	0.0	1.00	69.7350	34.8675	25.1046	0.9	0.85	1000	-1000	1000	0.1	0.01	0	0	1;
	76078	0.0	0.0	1.00	68.6400	34.3200	24.7104	0.9	0.85	1000	-1000	1000	0.1	0.01	0	0	1;
	76237	0.0	0.0	1.00	68.2800	34.1400	24.5808	0.9	0.85	1000	-1000	1000	0.1	0.01	0	0	1;
	37863	0.0	0.0	1.00	66.4800	33.2400	23.9328	0.9	0.85	1000	-1000	1000	0.1	0.01	0	0	1;
	35909	0.0	0.0	1.00	66.3000	33.1500	23.8680	0.9	0.85	1000	-1000	1000	0.1	0.01	0	0	1;
	35819	0.0	0.0	1.00	66.0600	33.0300	23.7816	0.9	0.85	1000	-1000	1000	0.1	0.01	0	0	1;
	75914	0.0	0.0	1.00	65.8950	32.9475	23.7222	0.9	0.85	1000	-1000	1000	0.1	0.01	0	0	1;
	75633	0.0	0.0	1.00	65.5350	32.7675	23.5926	0.9	0.85	1000	-1000	1000	0.1	0.01	0	0	1;
	35345	0.0	0.0	1.00	65.1000	32.5500	23.4360	0.9	0.85	1000	-1000	1000	0.1	0.01	0	0	1;
	75736	0.0	0.0	1.00	64.7550	32.3775	23.3118	0.9	0.85	1000	-1000	1000	0.1	0.01	0	0	1;
	35818	0.0	0.0	1.00	64.5750	32.2875	23.2470	0.9	0.85	1000	-1000	1000	0.1	0.01	0	0	1;
	75891	0.0	0.0	1.00	64.3500	32.1750	23.1660	0.9	0.85	1000	-1000	1000	0.1	0.01	0	0	1;
	38162	0.0	0.0	1.00	64.0050	32.0025	23.0418	0.9	0.85	1000	-1000	1000	0.1	0.01	0	0	1;
	36538	0.0	0.0	1.00	62.8050	31.4025	22.6098	0.9	0.85	1000	-1000	1000	0.1	0.01	0	0	1;
	76121	0.0	0.0	1.00	62.7750	31.3875	22.5990	0.9	0.85	1000	-1000	1000	0.1	0.01	0	0	1;
	36055	0.0	0.0	1.00	62.5950	31.2975	22.5342	0.9	0.85	1000	-1000	1000	0.1	0.01	0	0	1;
	36149	0.0	0.0	1.00	61.8150	30.9075	22.2534	0.9	0.85	1000	-1000	1000	0.1	0.01	0	0	1;
	75560	0.0	0.0	1.00	61.1250	30.5625	22.0050	0.9	0.85	1000	-1000	1000	0.1	0.01	0	0	1;
	75577	0.0	0.0	1.00	60.9750	30.4875	21.9510	0.9	0.85	1000	-1000	1000	0.1	0.01	0	0	1;
	76180	0.0	0.0	1.00	60.8400	30.4200	21.9024	0.9	0.85	1000	-1000	1000	0.1	0.01	0	0	1;
	75966	0.0	0.0	1.00	59.7300	29.8650	21.5028	0.9	0.85	1000	-1000	1000	0.1	0.01	0	0	1;
	75842	0.0	0.0	1.00	59.2500	29.6250	21.3300	0.9	0.85	1000	-1000	1000	0.1	0.01	0	0	1;
	75895	0.0	0.0	1.00	59.2050	29.6025	21.3138	0.9	0.85	1000	-1000	1000	0.1	0.01	0	0	1;
	36530	0.0	0.0	1.00	59.1600	29.5800	21.2976	0.9	0.85	1000	-1000	1000	0.1	0.01	0	0	1;
	75924	0.0	0.0	1.00	58.9800	29.4900	21.2328	0.9	0.85	1000	-1000	1000	0.1	0.01	0	0	1;
	35602	0.0	0.0	1.00	58.7550	29.3775	21.1518	0.9	0.85	1000	-1000	1000	0.1	0.01	0	0	1;
	76092	0.0	0.0	1.00	58.7400	29.3700	21.1464	0.9	0.85	1000	-1000	1000	0.1	0.01	0	0	1;
	76084	0.0	0.0	1.00	58.7250	29.3625	21.1410	0.9	0.85	1000	-1000	1000	0.1	0.01	0	0	1;
	75788	0.0	0.0	1.00	58.6800	29.3400	21.1248	0.9	0.85	1000	-1000	1000	0.1	0.01	0	0	1;
	76137	0.0	0.0	1.00	58.3500	29.1750	21.0060	0.9	0.85	1000	-1000	1000	0.1	0.01	0	0	1;
	75601	0.0	0.0	1.00	57.8550	28.9275	20.8278	0.9	0.85	1000	-1000	1000	0.1	0.01	0	0	1;
	76250	0.0	0.0	1.00	57.6300	28.8150	20.7468	0.9	0.85	1000	-1000	1000	0.1	0.01	0	0	1;
	75565	0.0	0.0	1.00	57.5100	28.7550	20.7036	0.9	0.85	1000	-1000	1000	0.1	0.01	0	0	1;
	75892	0.0	0.0	1.00	57.4350	28.7175	20.6766	0.9	0.85	1000	-1000	1000	0.1	0.01	0	0	1;
	75599	0.0	0.0	1.00	57.2100	28.6050	20.5956	0.9	0.85	1000	-1000	1000	0.1	0.01	0	0	1;
	75839	0.0	0.0	1.00	56.5200	28.2600	20.3472	0.9	0.85	1000	-1000	1000	0.1	0.01	0	0	1;
	76123	0.0	0.0	1.00	55.5600	27.7800	20.0016	0.9	0.85	1000	-1000	1000	0.1	0.01	0	0	1;
	76032	0.0	0.0	1.00	55.3950	27.6975	19.9422	0.9	0.85	1000	-1000	1000	0.1	0.01	0	0	1;
	76061	0.0	0.0	1.00	54.6150	27.3075	19.6614	0.9	0.85	1000	-1000	1000	0.1	0.01	0	0	1;
	75714	0.0	0.0	1.00	54.5700	27.2850	19.6452	0.9	0.85	1000	-1000	1000	0.1	0.01	0	0	1;
	35995	0.0	0.0	1.00	54.5400	27.2700	19.6344	0.9	0.85	1000	-1000	1000	0.1	0.01	0	0	1;
	76104	0.0	0.0	1.00	53.8650	26.9325	19.3914	0.9	0.85	1000	-1000	1000	0.1	0.01	0	0	1;
	75794	0.0	0.0	1.00	53.7750	26.8875	19.3590	0.9	0.85	1000	-1000	1000	0.1	0.01	0	0	1;
	76034	0.0	0.0	1.00	53.7600	26.8800	19.3536	0.9	0.85	1000	-1000	1000	0.1	0.01	0	0	1;
	35820	0.0	0.0	1.00	53.1750	26.5875	19.1430	0.9	0.85	1000	-1000	1000	0.1	0.01	0	0	1;
	38004	0.0	0.0	1.00	53.0850	26.5425	19.1106	0.9	0.85	1000	-1000	1000	0.1	0.01	0	0	1;
	36419	0.0	0.0	1.00	52.6950	26.3475	18.9702	0.9	0.85	1000	-1000	1000	0.1	0.01	0	0	1;
	35889	0.0	0.0	1.00	52.6200	26.3100	18.9432	0.9	0.85	1000	-1000	1000	0.1	0.01	0	0	1;
	36503	0.0	0.0	1.00	52.1100	26.0550	18.7596	0.9	0.85	1000	-1000	1000	0.1	0.01	0	0	1;
	75767	0.0	0.0	1.00	51.7800	25.8900	18.6408	0.9	0.85	1000	-1000	1000	0.1	0.01	0	0	1;
	35806	0.0	0.0	1.00	51.7500	25.8750	18.6300	0.9	0.85	1000	-1000	1000	0.1	0.01	0	0	1;
	36537	0.0	0.0	1.00	51.0300	25.5150	18.3708	0.9	0.85	1000	-1000	1000	0.1	0.01	0	0	1;
	76255	0.0	0.0	1.00	50.9250	25.4625	18.3330	0.9	0.85	1000	-1000	1000	0.1	0.01	0	0	1;
	37819	0.0	0.0	1.00	50.8950	25.4475	18.3222	0.9	0.85	1000	-1000	1000	0.1	0.01	0	0	1;
	37823	0.0	0.0	1.00	50.3850	25.1925	18.1386	0.9	0.85	1000	-1000	1000	0.1	0.01	0	0	1;
	38134	0.0	0.0	1.00	50.3250	25.1625	18.1170	0.9	0.85	1000	-1000	1000	0.1	0.01	0	0	1;
	36378	0.0	0.0	1.00	50.2350	25.1175	18.0846	0.9	0.85	1000	-1000	1000	0.1	0.01	0	0	1;
	75986	0.0	0.0	1.00	49.9950	24.9975	17.9982	0.9	0.85	1000	-1000	1000	0.1	0.01	0	0	1;
	35969	0.0	0.0	1.00	49.7400	24.8700	17.9064	0.9	0.85	1000	-1000	1000	0.1	0.01	0	0	1;
	38336	0.0	0.0	1.00	49.7250	24.8625	17.9010	0.9	0.85	1000	-1000	1000	0.1	0.01	0	0	1;
	38058	0.0	0.0	1.00	49.1250	24.5625	17.6850	0.9	0.85	1000	-1000	1000	0.1	0.01	0	0	1;
	75675	0.0	0.0	1.00	48.8850	24.4425	17.5986	0.9	0.85	1000	-1000	1000	0.1	0.01	0	0	1;
	38123	0.0	0.0	1.00	48.5550	24.2775	17.4798	0.9	0.85	1000	-1000	1000	0.1	0.01	0	0	1;
	76089	0.0	0.0	1.00	48.4200	24.2100	17.4312	0.9	0.85	1000	-1000	1000	0.1	0.01	0	0	1;
	35714	0.0	0.0	1.00	48.1350	24.0675	17.3286	0.9	0.85	1000	-1000	1000	0.1	0.01	0	0	1;
	76160	0.0	0.0	1.00	48.1050	24.0525	17.3178	0.9	0.85	1000	-1000	1000	0.1	0.01	0	0	1;
	38304	0.0	0.0	1.00	48.0900	24.0450	17.3124	0.9	0.85	1000	-1000	1000	0.1	0.01	0	0	1;
	35810	0.0	0.0	1.00	48.0300	24.0150	17.2908	0.9	0.85	1000	-1000	1000	0.1	0.01	0	0	1;
	76213	0.0	0.0	1.00	47.9550	23.9775	17.2638	0.9	0.85	1000	-1000	1000	0.1	0.01	0	0	1;
	75699	0.0	0.0	1.00	46.8900	23.4450	16.8804	0.9	0.85	1000	-1000	1000	0.1	0.01	0	0	1;
	35640	0.0	0.0	1.00	46.8450	23.4225	16.8642	0.9	0.85	1000	-1000	1000	0.1	0.01	0	0	1;
	35834	0.0	0.0	1.00	46.8150	23.4075	16.8534	0.9	0.85	1000	-1000	1000	0.1	0.01	0	0	1;
	76214	0.0	0.0	1.00	46.4850	23.2425	16.7346	0.9	0.85	1000	-1000	1000	0.1	0.01	0	0	1;
	76200	0.0	0.0	1.00	46.3650	23.1825	16.6914	0.9	0.85	1000	-1000	1000	0.1	0.01	0	0	1;
	76007	0.0	0.0	1.00	45.8700	22.9350	16.5132	0.9	0.85	1000	-1000	1000	0.1	0.01	0	0	1;
	36157	0.0	0.0	1.00	45.2400	22.6200	16.2864	0.9	0.85	1000	-1000	1000	0.1	0.01	0	0	1;
	76158	0.0	0.0	1.00	45.1200	22.5600	16.2432	0.9	0.85	1000	-1000	1000	0.1	0.01	0	0	1;
	75893	0.0	0.0	1.00	45.0300	22.5150	16.2108	0.9	0.85	1000	-1000	1000	0.1	0.01	0	0	1;
	75553	0.0	0.0	1.00	44.8200	22.4100	16.1352	0.9	0.85	1000	-1000	1000	0.1	0.01	0	0	1;
	36144	0.0	0.0	1.00	44.6850	22.3425	16.0866	0.9	0.85	1000	-1000	1000	0.1	0.01	0	0	1;
	38149	0.0	0.0	1.00	44.5950	22.2975	16.0542	0.9	0.85	1000	-1000	1000	0.1	0.01	0	0	1;
	76203	0.0	0.0	1.00	44.4450	22.2225	16.0002	0.9	0.85	1000	-1000	1000	0.1	0.01	0	0	1;
	75637	0.0	0.0	1.00	44.3250	22.1625	15.9570	0.9	0.85	1000	-1000	1000	0.1	0.01	0	0	1;
	75952	0.0	0.0	1.00	44.1750	22.0875	15.9030	0.9	0.85	1000	-1000	1000	0.1	0.01	0	0	1;
	76073	0.0	0.0	1.00	44.1750	22.0875	15.9030	0.9	0.85	1000	-1000	1000	0.1	0.01	0	0	1;
	75990	0.0	0.0	1.00	43.9950	21.9975	15.8382	0.9	0.85	1000	-1000	1000	0.1	0.01	0	0	1;
	36166	0.0	0.0	1.00	43.9050	21.9525	15.8058	0.9	0.85	1000	-1000	1000	0.1	0.01	0	0	1;
	76069	0.0	0.0	1.00	43.6200	21.8100	15.7032	0.9	0.85	1000	-1000	1000	0.1	0.01	0	0	1;
	38322	0.0	0.0	1.00	43.4850	21.7425	15.6546	0.9	0.85	1000	-1000	1000	0.1	0.01	0	0	1;
	36366	0.0	0.0	1.00	43.4400	21.7200	15.6384	0.9	0.85	1000	-1000	1000	0.1	0.01	0	0	1;
	75658	0.0	0.0	1.00	43.3350	21.6675	15.6006	0.9	0.85	1000	-1000	1000	0.1	0.01	0	0	1;
	36053	0.0	0.0	1.00	43.2000	21.6000	15.5520	0.9	0.85	1000	-1000	1000	0.1	0.01	0	0	1;
	38174	0.0	0.0	1.00	42.9900	21.4950	15.4764	0.9	0.85	1000	-1000	1000	0.1	0.01	0	0	1;
	35431	0.0	0.0	1.00	42.9300	21.4650	15.4548	0.9	0.85	1000	-1000	1000	0.1	0.01	0	0	1;
	38060	0.0	0.0	1.00	42.9150	21.4575	15.4494	0.9	0.85	1000	-1000	1000	0.1	0.01	0	0	1;
	75587	0.0	0.0	1.00	42.8550	21.4275	15.4278	0.9	0.85	1000	-1000	1000	0.1	0.01	0	0	1;
	75979	0.0	0.0	1.00	42.8250	21.4125	15.4170	0.9	0.85	1000	-1000	1000	0.1	0.01	0	0	1;
	75936	0.0	0.0	1.00	42.5100	21.2550	15.3036	0.9	0.85	1000	-1000	1000	0.1	0.01	0	0	1;
	76124	0.0	0.0	1.00	42.3000	21.1500	15.2280	0.9	0.85	1000	-1000	1000	0.1	0.01	0	0	1;
	35711	0.0	0.0	1.00	41.5200	20.7600	14.9472	0.9	0.85	1000	-1000	1000	0.1	0.01	0	0	1;
	75867	0.0	0.0	1.00	41.4600	20.7300	14.9256	0.9	0.85	1000	-1000	1000	0.1	0.01	0	0	1;
	35438	0.0	0.0	1.00	41.1900	20.5950	14.8284	0.9	0.85	1000	-1000	1000	0.1	0.01	0	0	1;
	35786	0.0	0.0	1.00	41.0550	20.5275	14.7798	0.9	0.85	1000	-1000	1000	0.1	0.01	0	0	1;
	35796	0.0	0.0	1.00	40.8900	20.4450	14.7204	0.9	0.85	1000	-1000	1000	0.1	0.01	0	0	1;
	35805	0.0	0.0	1.00	40.8000	20.4000	14.6880	0.9	0.85	1000	-1000	1000	0.1	0.01	0	0	1;
	35749	0.0	0.0	1.00	40.7700	20.3850	14.6772	0.9	0.85	1000	-1000	1000	0.1	0.01	0	0	1;
	75732	0.0	0.0	1.00	40.7550	20.3775	14.6718	0.9	0.85	1000	-1000	1000	0.1	0.01	0	0	1;
	75780	0.0	0.0	1.00	40.7250	20.3625	14.6610	0.9	0.85	1000	-1000	1000	0.1	0.01	0	0	1;
	75578	0.0	0.0	1.00	40.6500	20.3250	14.6340	0.9	0.85	1000	-1000	1000	0.1	0.01	0	0	1;
	35561	0.0	0.0	1.00	40.4700	20.2350	14.5692	0.9	0.85	1000	-1000	1000	0.1	0.01	0	0	1;
	75554	0.0	0.0	1.00	40.1250	20.0625	14.4450	0.9	0.85	1000	-1000	1000	0.1	0.01	0	0	1;
	75783	0.0	0.0	1.00	40.1100	20.0550	14.4396	0.9	0.85	1000	-1000	1000	0.1	0.01	0	0	1;
	36150	0.0	0.0	1.00	40.0650	20.0325	14.4234	0.9	0.85	1000	-1000	1000	0.1	0.01	0	0	1;
	36506	0.0	0.0	1.00	39.7200	19.8600	14.2992	0.9	0.85	1000	-1000	1000	0.1	0.01	0	0	1;
	75822	0.0	0.0	1.00	39.6900	19.8450	14.2884	0.9	0.85	1000	-1000	1000	0.1	0.01	0	0	1;
	35678	0.0	0.0	1.00	39.1650	19.5825	14.0994	0.9	0.85	1000	-1000	1000	0.1	0.01	0	0	1;
	75984	0.0	0.0	1.00	39.1650	19.5825	14.0994	0.9	0.85	1000	-1000	1000	0.1	0.01	0	0	1;
	75963	0.0	0.0	1.00	39.1200	19.5600	14.0832	0.9	0.85	1000	-1000	1000	0.1	0.01	0	0	1;
	35515	0.0	0.0	1.00	38.9400	19.4700	14.0184	0.9	0.85	1000	-1000	1000	0.1	0.01	0	0	1;
	76127	0.0	0.0	1.00	38.7000	19.3500	13.9320	0.9	0.85	1000	-1000	1000	0.1	0.01	0	0	1;
	75771	0.0	0.0	1.00	38.5800	19.2900	13.8888	0.9	0.85	1000	-1000	1000	0.1	0.01	0	0	1;
	75833	0.0	0.0	1.00	38.4750	19.2375	13.8510	0.9	0.85	1000	-1000	1000	0.1	0.01	0	0	1;
	38208	0.0	0.0	1.00	38.3850	19.1925	13.8186	0.9	0.85	1000	-1000	1000	0.1	0.01	0	0	1;
	75834	0.0	0.0	1.00	38.3850	19.1925	13.8186	0.9	0.85	1000	-1000	1000	0.1	0.01	0	0	1;
	36542	0.0	0.0	1.00	38.2650	19.1325	13.7754	0.9	0.85	1000	-1000	1000	0.1	0.01	0	0	1;
	38078	0.0	0.0	1.00	38.1900	19.0950	13.7484	0.9	0.85	1000	-1000	1000	0.1	0.01	0	0	1;
	35750	0.0	0.0	1.00	38.1150	19.0575	13.7214	0.9	0.85	1000	-1000	1000	0.1	0.01	0	0	1;
	75849	0.0	0.0	1.00	37.8900	18.9450	13.6404	0.9	0.85	1000	-1000	1000	0.1	0.01	0	0	1;
	75925	0.0	0.0	1.00	37.8300	18.9150	13.6188	0.9	0.85	1000	-1000	1000	0.1	0.01	0	0	1;
	35457	0.0	0.0	1.00	37.8000	18.9000	13.6080	0.9	0.85	1000	-1000	1000	0.1	0.01	0	0	1;
	76181	0.0	0.0	1.00	37.7700	18.8850	13.5972	0.9	0.85	1000	-1000	1000	0.1	0.01	0	0	1;
	36054	0.0	0.0	1.00	37.6800	18.8400	13.5648	0.9	0.85	1000	-1000	1000	0.1	0.01	0	0	1;
	38217	0.0	0.0	1.00	37.6350	18.8175	13.5486	0.9	0.85	1000	-1000	1000	0.1	0.01	0	0	1;
	36015	0.0	0.0	1.00	37.6050	18.8025	13.5378	0.9	0.85	1000	-1000	1000	0.1	0.01	0	0	1;
	35937	0.0	0.0	1.00	37.4100	18.7050	13.4676	0.9	0.85	1000	-1000	1000	0.1	0.01	0	0	1;
	75677	0.0	0.0	1.00	37.2300	18.6150	13.4028	0.9	0.85	1000	-1000	1000	0.1	0.01	0	0	1;
	76101	0.0	0.0	1.00	37.1850	18.5925	13.3866	0.9	0.85	1000	-1000	1000	0.1	0.01	0	0	1;
	75781	0.0	0.0	1.00	37.1250	18.5625	13.3650	0.9	0.85	1000	-1000	1000	0.1	0.01	0	0	1;
	76067	0.0	0.0	1.00	37.0950	18.5475	13.3542	0.9	0.85	1000	-1000	1000	0.1	0.01	0	0	1;
	35547	0.0	0.0	1.00	36.9300	18.4650	13.2948	0.9	0.85	1000	-1000	1000	0.1	0.01	0	0	1;
	75561	0.0	0.0	1.00	36.6900	18.3450	13.2084	0.9	0.85	1000	-1000	1000	0.1	0.01	0	0	1;
	76230	0.0	0.0	1.00	36.6000	18.3000	13.1760	0.9	0.85	1000	-1000	1000	0.1	0.01	0	0	1;
	76063	0.0	0.0	1.00	36.4350	18.2175	13.1166	0.9	0.85	1000	-1000	1000	0.1	0.01	0	0	1;
	75653	0.0	0.0	1.00	36.3750	18.1875	13.0950	0.9	0.85	1000	-1000	1000	0.1	0.01	0	0	1;
	76199	0.0	0.0	1.00	36.3750	18.1875	13.0950	0.9	0.85	1000	-1000	1000	0.1	0.01	0	0	1;
	36569	0.0	0.0	1.00	36.2400	18.1200	13.0464	0.9	0.85	1000	-1000	1000	0.1	0.01	0	0	1;
	75869	0.0	0.0	1.00	36.2250	18.1125	13.0410	0.9	0.85	1000	-1000	1000	0.1	0.01	0	0	1;
	76118	0.0	0.0	1.00	36.1350	18.0675	13.0086	0.9	0.85	1000	-1000	1000	0.1	0.01	0	0	1;
	76205	0.0	0.0	1.00	36.1200	18.0600	13.0032	0.9	0.85	1000	-1000	1000	0.1	0.01	0	0	1;
...
];

%% branch data
%	fbus	tbus	r	x	b	rateA	rateB	rateC	ratio	angle	status	angmin	angmax
mpc.branch = [
	35250	 35260	 0.000150811	 0.00194905	 0.124388	 1725.0	 1745.0	 1745.0	 0.0	 0.0	 1	 -30.0	 30.0;
	35250	 36002	 0.000832099	 0.00610363	 0.211852	 795.0	 795.0	 795.0	 0.0	 0.0	 1	 -30.0	 30.0;
	35250	 36140	 0.000568878	 0.0095087	 0.621987	 2056.0	 2056.0	 2056.0	 0.0	 0.0	 1	 -30.0	 30.0;
	35250	 36372	 0.000177755	 0.00247061	 0.157639	 1813.0	 1813.0	 1813.0	 0.0	 0.0	 1	 -30.0	 30.0;
	35251	 35650	 0.000761	 0.014125	 0.935594	 2226.0	 2226.0	 2226.0	 0.0	 0.0	 1	 -30.0	 30.0;
	35251	 35799	 0.000182	 0.001332	 0.04622	 1795.0	 1795.0	 1795.0	 0.0	 0.0	 1	 -30.0	 30.0;
	35252	 35927	 9e-05	 0.001157	 0.086753	 2598.0	 2598.0	 2598.0	 0.0	 0.0	 1	 -30.0	 30.0;
	35252	 35953	 0.000504	 0.007407	 0.288028	 2158.0	 2158.0	 2158.0	 0.0	 0.0	 1	 -30.0	 30.0;
	35252	 36583	 0.000318	 0.002334	 0.081	 1695.0	 1695.0	 1695.0	 0.0	 0.0	 1	 -30.0	 30.0;
	35253	 35612	 0.000340265	 0.00249547	 0.0865925	 795.0	 795.0	 795.0	 0.0	 0.0	 1	 -30.0	 30.0;
	35254	 35441	 0.000382434	 0.00638885	 0.417572	 2056.0	 2056.0	 2056.0	 0.0	 0.0	 1	 -30.0	 30.0;
	35254	 36253	 6.38767e-05	 0.0018319	 0.127441	 3031.0	 3031.0	 3031.0	 0.0	 0.0	 1	 -30.0	 30.0;
	35254	 36254	 0.000354548	 0.00260022	 0.090228	 795.0	 795.0	 795.0	 0.0	 0.0	 1	 -30.0	 30.0;
	35255	 36439	 0.000124363	 0.00210112	 0.0833872	 1392.0	 1392.0	 1392.0	 0.0	 0.0	 1	 -30.0	 30.0;
	35255	 36483	 8.59941e-05	 0.00145286	 0.0576583	 1492.0	 1495.0	 1495.0	 0.0	 0.0	 1	 -30.0	 30.0;
	35256	 35555	 0.00234781	 0.0172483	 0.600016	 795.0	 795.0	 795.0	 0.0	 0.0	 1	 -30.0	 30.0;
	35256	 35768	 0.00140625	 0.0103194	 0.35839	 795.0	 795.0	 795.0	 0.0	 0.0	 1	 -30.0	 30.0;
	35257	 35570	 0.00100008	 0.00692294	 0.270403	 795.0	 795.0	 795.0	 0.0	 0.0	 1	 -30.0	 30.0;
	35257	 36471	 0.00366664	 0.0270069	 0.943018	 795.0	 795.0	 795.0	 0.0	 0.0	 1	 -30.0	 30.0;
	35257	 36515	 0.000183274	 0.0012683	 0.0495164	 795.0	 795.0	 795.0	 0.0	 0.0	 1	 -30.0	 30.0;
	35257	 36517	 0.000964483	 0.00707523	 0.245602	 795.0	 795.0	 795.0	 0.0	 0.0	 1	 -30.0	 30.0;
	35258	 36270	 0.000563127	 0.00389733	 0.152178	 795.0	 795.0	 795.0	 0.0	 0.0	 1	 -30.0	 30.0;
	35258	 36282	 0.000178415	 0.00123467	 0.0482035	 795.0	 795.0	 795.0	 0.0	 0.0	 1	 -30.0	 30.0;
	35259	 36363	 0.00142425	 0.0178051	 0.00778544	 388.0	 388.0	 388.0	 0.0	 0.0	 1	 -30.0	 30.0;
	35259	 75803	 0.00379202	 0.028179	 0.0107464	 261.0	 261.0	 261.0	 0.0	 0.0	 1	 -30.0	 30.0;
	35259	 75927	 0.00038155	 0.00530351	 0.00291475	 567.0	 567.0	 567.0	 0.0	 0.0	 1	 -30.0	 30.0;
	35260	 36372	 5.01821e-05	 0.000804285	 0.0364889	 1513.0	 1531.0	 1531.0	 0.0	 0.0	 1	 -30.0	 30.0;
	35261	 35509	 0.015104	 0.154089	 0.354401	 1366.0	 1366.0	 1366.0	 0.0	 0.0	 1	 -30.0	 30.0;
	35261	 36424	 0.008505	 0.053922	 0.113089	 1366.0	 1366.0	 1366.0	 0.0	 0.0	 1	 -30.0	 30.0;
	35262	 35594	 0.000273541	 0.00317949	 0.134706	 1113.0	 1113.0	 1113.0	 0.0	 0.0	 1	 -30.0	 30.0;
	35262	 35602	 0.00029088	 0.00255715	 0.103085	 933.0	 933.0	 933.0	 0.0	 0.0	 1	 -30.0	 30.0;
	35263	 35512	 0.00349689	 0.0259856	 0.0099098	 261.0	 261.0	 261.0	 0.0	 0.0	 1	 -30.0	 30.0;
	35263	 35515	 0.00569399	 0.0227869	 0.00769752	 175.0	 175.0	 175.0	 0.0	 0.0	 1	 -30.0	 30.0;
	35263	 35529	 0.00184376	 0.0199598	 0.00840049	 347.0	 347.0	 347.0	 0.0	 0.0	 1	 -30.0	 30.0;
	35263	 36490	 0.012881	 0.0420154	 0.0111553	 142.0	 142.0	 142.0	 0.0	 0.0	 1	 -30.0	 30.0;
	35263	 36493	 0.016448	 0.038182	 0.011633	 218.0	 218.0	 218.0	 0.0	 0.0	 1	 -30.0	 30.0;
	35264	 36361	 0.00132066	 0.0171893	 0.0383339	 579.0	 579.0	 579.0	 0.0	 0.0	 1	 -30.0	 30.0;
	35264	 75546	 0.000405805	 0.00729515	 0.0146678	 697.0	 697.0	 697.0	 0.0	 0.0	 1	 -30.0	 30.0;
	35264	 75902	 0.00452141	 0.029356	 0.0584947	 366.0	 366.0	 366.0	 0.0	 0.0	 1	 -30.0	 30.0;
	35265	 35266	 1e-05	 6.8e-05	 0.002488	 1795.0	 1795.0	 1795.0	 0.0	 0.0	 1	 -30.0	 30.0;
...